geometry optimzed in LAMMPS
_audit_creation_date              2020-11-30 
_audit_creation_method            'lammps2cif' 
_symmetry_space_group_name_H-M    'P1' 
_symmetry_Int_Tables_number       1 
_symmetry_cell_setting            triclinic 
loop_ 
_symmetry_equiv_pos_as_xyz 
  x,y,z 
_cell_length_a                    50.83696717476206 
_cell_length_b                    49.96329478093089 
_cell_length_c                    39.26554773315395 
_cell_angle_alpha                 90.19296403862833 
_cell_angle_beta                  90.05916737447805 
_cell_angle_gamma                 120.89255456095378 
loop_ 
_atom_site_label 
_atom_site_type_symbol 
_atom_site_fract_x 
_atom_site_fract_y 
_atom_site_fract_z 
_atom_site_charge 
C1          C  0.42272639  0.06972289  0.89543927     0.02650
C2          C  0.39102146  0.05307196  0.90177702    -0.13490
C3          C  0.37814632  0.06363126  0.92643096     0.00160
C4          C  0.39770325  0.09154382  0.94398048    -0.12020
C5          C  0.42877269  0.10961245  0.93579724     0.02650
C6          C  0.44126052  0.09840475  0.91183440    -0.11440
H7          H  0.37663121  0.03181230  0.88758666     0.08240
H8          H  0.38888266  0.09958914  0.96404011     0.05770
H9          H  0.46553919  0.11197560  0.90612897     0.05620
C10         C  0.43130065  0.33846636  0.89998463     0.02650
C11         C  0.44981795  0.32903857  0.91602591    -0.13490
C12         C  0.43698923  0.30214892  0.93664852     0.00160
C13         C  0.40516760  0.28612153  0.94246109    -0.12020
C14         C  0.38615797  0.29590096  0.92802386     0.02650
C15         C  0.39957086  0.32126929  0.90542740    -0.11440
H16         H  0.47422449  0.34245937  0.91154017     0.08240
H17         H  0.39531441  0.26624462  0.95874528     0.05770
H18         H  0.38539883  0.32824821  0.89217224     0.05620
C19         C  0.34004439  0.41541702  0.11431772     0.02650
C20         C  0.32771989  0.43317024  0.10229956    -0.13490
C21         C  0.30786299  0.42293932  0.07399955     0.00160
C22         C  0.29981230  0.39420438  0.05888208    -0.12020
C23         C  0.30839826  0.37427653  0.07343644     0.02650
C24         C  0.32939147  0.38555767  0.10063450    -0.11440
H25         H  0.33413193  0.45505909  0.11471570     0.08240
H26         H  0.28650985  0.38717264  0.03555386     0.05770
H27         H  0.33811091  0.37149082  0.11076640     0.05620
C28         C  0.17050652  0.07670965  0.88723245     0.02650
C29         C  0.18245517  0.05829439  0.89852881    -0.13490
C30         C  0.20792719  0.07095740  0.92052679     0.00160
C31         C  0.22130732  0.10209225  0.93093270    -0.12020
C32         C  0.20772557  0.11947621  0.92287542     0.02650
C33         C  0.18288828  0.10714341  0.90017311    -0.11440
H34         H  0.17133745  0.03397730  0.89108314     0.08240
H35         H  0.24082020  0.11198811  0.94812300     0.05770
H36         H  0.17263568  0.12080920  0.89342558     0.05620
C37         C  0.08551358  0.41232226  0.10600374     0.02650
C38         C  0.06936926  0.38230835  0.09120148    -0.13490
C39         C  0.08505864  0.36858082  0.07671860     0.00160
C40         C  0.11719719  0.38598321  0.07652235    -0.12020
C41         C  0.13302041  0.41761254  0.08501137     0.02650
C42         C  0.11760188  0.43020759  0.10199508    -0.11440
H43         H  0.04461356  0.37017631  0.09041957     0.08240
H44         H  0.13008081  0.37642557  0.06526848     0.05770
H45         H  0.13047787  0.45418229  0.11062432     0.05620
C46         C  0.26245835  0.48774425  0.99384369     0.00090
C47         C  0.23664810  0.48991924  0.99608390     0.00090
C48         C  0.09105102  0.15933685  0.10733744     0.02650
C49         C  0.07298458  0.17090441  0.09414892    -0.13490
C50         C  0.08579537  0.19627078  0.07162182     0.00160
C51         C  0.11665100  0.21003201  0.06261610    -0.12020
C52         C  0.13393220  0.19693632  0.07278903     0.02650
C53         C  0.12144986  0.17220052  0.09600941    -0.11440
H54         H  0.04886108  0.15952749  0.10044011     0.08240
H55         H  0.12641692  0.22920801  0.04468196     0.05770
H56         H  0.13490753  0.16216779  0.10415023     0.05620
C57         C  0.01396375  0.23178951  0.98940020     0.00090
C58         C  0.01753902  0.26089503  0.98845363     0.00090
C59         C  0.24542259  0.23289298  0.99854852     0.00090
C60         C  0.27307770  0.26039435  0.99844999     0.00090
O61         O  0.99875881  0.04247896  0.77872602    -0.85820
O62         O  0.04981843  0.03819000  0.79261206    -0.82870
C63         C  0.06647715  0.02635849  0.79492890     0.97640
O64         O  0.06257085  0.50493780  0.77463679    -0.82900
O65         O  0.00752272  0.45378042  0.79388036    -0.85550
C66         C  0.47903480  0.43605937  0.79780789     1.02170
O67         O  0.46041103  0.43888030  0.77892288    -0.78310
O68         O  0.46535396  0.49505537  0.79504194    -0.78500
C69         C  0.47681623  0.02410673  0.79782083     1.02120
O70         O  0.00858034  0.03915065  0.70748573    -0.85820
O71         O  0.06199977  0.03975245  0.72032267    -0.82880
C72         C  0.06262807  0.01996893  0.70054498     0.97660
O73         O  0.04459934  0.49112656  0.70489332    -0.82910
O74         O  0.99210153  0.43683942  0.72336842    -0.85520
C75         C  0.47111330  0.43488841  0.70429274     1.02130
O76         O  0.46149939  0.45341539  0.70794216    -0.78340
O77         O  0.46145663  0.50652871  0.72426361    -0.78480
C78         C  0.48010728  0.02771870  0.70451473     1.02090
Cr79       Cr  0.02808506  0.03651811  0.74991198     1.93740
Cr80       Cr  0.02510005  0.47343155  0.74931600     1.93210
Cr81       Cr  0.46555226  0.47511222  0.75150185     1.39100
O82         O  0.00622896  0.49508838  0.75012409    -1.23570
C83         C  0.42300082  0.07437884  0.61493381     0.02650
C84         C  0.39144487  0.05569522  0.60740834    -0.13490
C85         C  0.37783672  0.06509795  0.58265249     0.00160
C86         C  0.39626481  0.09335923  0.56570763    -0.12020
C87         C  0.42717390  0.11280457  0.57398129     0.02650
C88         C  0.44070614  0.10292237  0.59796985    -0.11440
H89         H  0.37771430  0.03369909  0.62042414     0.08240
H90         H  0.38672622  0.10015363  0.54513933     0.05770
H91         H  0.46516448  0.11696986  0.60256583     0.05620
C92         C  0.35023786  0.41783857  0.39352587     0.02650
C93         C  0.33682709  0.43574957  0.40162883    -0.13490
C94         C  0.31230312  0.42455368  0.42478361     0.00160
C95         C  0.30182081  0.39539888  0.43987854    -0.12020
C96         C  0.31342897  0.37645601  0.43037955     0.02650
C97         C  0.33784839  0.38786134  0.40737310    -0.11440
H98         H  0.34573496  0.45845031  0.39011263     0.08240
H99         H  0.28438164  0.38720338  0.45939413     0.05770
H100        H  0.34739765  0.37356172  0.40052173     0.05620
C101        C  0.16251561  0.07134497  0.60304345     0.02650
C102        C  0.17477392  0.10280962  0.59378638    -0.13490
C103        C  0.20120115  0.11793165  0.57373841     0.00160
C104        C  0.21717878  0.10262846  0.56632889    -0.12020
C105        C  0.20322056  0.07019152  0.57000855     0.02650
C106        C  0.17536522  0.05472178  0.58841679    -0.11440
H107        H  0.16358374  0.11534461  0.60149062     0.08240
H108        H  0.23984620  0.11627314  0.55578883     0.05770
H109        H  0.16339259  0.02968161  0.59146348     0.05620
C110        C  0.08796957  0.41191044  0.38589054     0.02650
C111        C  0.11763247  0.42923651  0.39981996    -0.13490
C112        C  0.12628137  0.41840900  0.42858043     0.00160
C113        C  0.10288504  0.39131105  0.44429766    -0.12020
C114        C  0.07501538  0.37108069  0.42773741     0.02650
C115        C  0.06782774  0.38167244  0.39800206    -0.11440
H116        H  0.13310963  0.45122602  0.38796194     0.08240
H117        H  0.10609230  0.38534618  0.46967669     0.05770
H118        H  0.04634078  0.36711502  0.38487962     0.05620
C119        C  0.00019076  0.25207361  0.49610319     0.00090
C120        C  0.99858018  0.22381595  0.49328217     0.00090
C121        C  0.26915318  0.49275821  0.50193308     0.00090
C122        C  0.24179236  0.49239479  0.50131670     0.00090
C123        C  0.08845150  0.15926162  0.38775400     0.02650
C124        C  0.06869791  0.16683318  0.40434683    -0.13490
C125        C  0.07987257  0.18996634  0.42943372     0.00160
C126        C  0.11055329  0.20434841  0.43951583    -0.12020
C127        C  0.13175817  0.19943869  0.42179530     0.02650
C128        C  0.12016913  0.17739045  0.39464648    -0.11440
H129        H  0.04437679  0.15410569  0.39865038     0.08240
H130        H  0.11722922  0.21888315  0.46188451     0.05770
H131        H  0.13516964  0.17324348  0.37906147     0.05620
C132        C  0.42673599  0.33669538  0.60253600     0.02650
C133        C  0.44344619  0.32167073  0.59604353    -0.13490
C134        C  0.43353878  0.29801510  0.57092998     0.00160
C135        C  0.40503513  0.28784065  0.55513950    -0.12020
C136        C  0.38660764  0.29998591  0.56398217     0.02650
C137        C  0.39822319  0.32544377  0.58635413    -0.11440
H138        H  0.46394197  0.32848073  0.61071423     0.08240
H139        H  0.39665792  0.27008716  0.53554431     0.05770
H140        H  0.38493469  0.33642481  0.59116617     0.05620
C141        C  0.27039544  0.25856409  0.49829911     0.00090
C142        C  0.24249359  0.23144998  0.49572061     0.00090
O143        O  0.05091351  0.48250831  0.21770572    -0.85820
O144        O  0.05024895  0.03603140  0.20279229    -0.82870
C145        C  0.03944338  0.05367341  0.19960453     0.97640
O146        O  0.01854002  0.05071274  0.21929072    -0.82900
O147        O  0.46616661  0.49501477  0.20366006    -0.85550
C148        C  0.44743480  0.46607666  0.20153831     1.02170
O149        O  0.44980670  0.44764160  0.22159257    -0.78310
O150        O  0.00295047  0.44858262  0.20440404    -0.78500
C151        C  0.03128959  0.46003114  0.19962055     1.02120
O152        O  0.05077228  0.49503104  0.28939592    -0.85820
O153        O  0.05408218  0.05077637  0.27438783    -0.82880
C154        C  0.03591108  0.05467962  0.29290060     0.97660
O155        O  0.00726725  0.03710353  0.28981261    -0.82910
O156        O  0.45194867  0.48421830  0.27439090    -0.85520
C157        C  0.44836626  0.46281311  0.29428045     1.02130
O158        O  0.46584969  0.45183439  0.29221255    -0.78340
O159        O  0.01649153  0.44722078  0.27457770    -0.78480
C160        C  0.03895921  0.46596645  0.29290843     1.02090
Cr161      Cr  0.04805029  0.01434070  0.24619709     1.93740
Cr162      Cr  0.48768783  0.01491851  0.24682061     1.93210
Cr163      Cr  0.48565822  0.45238625  0.24819031     1.39100
O164        O  0.00723962  0.49391220  0.24712456    -1.23570
C165        C  0.35552298  0.28607392  0.54863803    -0.06600
C166        C  0.35247774  0.28099327  0.51335608    -0.17730
C167        C  0.32401492  0.26792479  0.49732140     0.10600
C168        C  0.29760606  0.26101558  0.51619856    -0.06520
C169        C  0.30040219  0.26453577  0.55175617    -0.17760
C170        C  0.32877443  0.27640257  0.56819600     0.10630
S171        S  0.32284914  0.26047943  0.45246107    -0.32720
S172        S  0.32910047  0.27863159  0.61406377    -0.32730
H173        H  0.35255436  0.27191295  0.61867576     0.28640
H174        H  0.30821527  0.22810896  0.45779513     0.28630
H175        H  0.37253756  0.28749414  0.49793547     0.19230
H176        H  0.28091784  0.25975397  0.56693571     0.19230
C177        C  0.21859001  0.22869449  0.47110057    -0.06600
C178        C  0.20314905  0.24460253  0.47796826    -0.17730
C179        C  0.17828979  0.23982188  0.45778658     0.10600
C180        C  0.16449257  0.21414811  0.43450916    -0.06520
C181        C  0.18203765  0.20068926  0.42565767    -0.17760
C182        C  0.21007360  0.20987835  0.44132531     0.10630
S183        S  0.16914735  0.27025984  0.45949663    -0.32720
S184        S  0.23478802  0.19996082  0.41857127    -0.32730
H185        H  0.26041700  0.21719904  0.43930429     0.28640
H186        H  0.15720061  0.26499617  0.42618248     0.28630
H187        H  0.21138021  0.26188748  0.49815603     0.19230
H188        H  0.17470387  0.18309092  0.40610253     0.19230
C189        C  0.07550877  0.13218107  0.36360907    -0.06600
C190        C  0.05282903  0.12844064  0.34029570    -0.17730
C191        C  0.03912930  0.10317558  0.31764900     0.10600
C192        C  0.04868263  0.08112811  0.31726741    -0.06520
C193        C  0.07145053  0.08480099  0.34026685    -0.17760
C194        C  0.08413998  0.10928629  0.36410395     0.10630
S195        S  0.51013195  0.10104658  0.28941884    -0.32720
S196        S  0.10933566  0.10836417  0.39585851    -0.32730
H197        H  0.09870493  0.11903867  0.42268444     0.28640
H198        H  0.51908295  0.09035294  0.26129958     0.28630
H199        H  0.04582614  0.14557220  0.33941320     0.19230
H200        H  0.07851988  0.06769813  0.34057142     0.19230
C201        C  0.48237037  0.25859975  0.52197733    -0.06600
C202        C  0.49895008  0.28642741  0.54070729    -0.17730
C203        C  0.48434903  0.30025445  0.55671250     0.10600
C204        C  0.45192168  0.28354012  0.55971131    -0.06520
C205        C  0.43593599  0.25272704  0.54669201    -0.17760
C206        C  0.45009167  0.24176662  0.52485989     0.10630
S207        S  0.50870834  0.34088333  0.56629264    -0.32720
S208        S  0.42504381  0.20966099  0.49753829    -0.32730
H209        H  0.44260392  0.22357630  0.46825488     0.28640
H210        H  0.49122617  0.34899920  0.54568964     0.28630
H211        H  0.52373450  0.29975806  0.53884216     0.19230
H212        H  0.41140560  0.23820458  0.55001583     0.19230
C213        C  0.02191819  0.21943884  0.47498526    -0.06600
C214        C  0.03729580  0.20842096  0.49523248    -0.17730
C215        C  0.05500439  0.19741952  0.48108246     0.10600
C216        C  0.05941986  0.19906388  0.44563265    -0.06520
C217        C  0.04541924  0.21131204  0.42518775    -0.17760
C218        C  0.02636647  0.22112499  0.43920612     0.10630
S219        S  0.06973335  0.17991423  0.50964225    -0.32720
S220        S  0.00802076  0.23384028  0.40932934    -0.32730
H221        H  0.98494989  0.23150943  0.43063074     0.28640
H222        H  0.06810849  0.15780650  0.48613796     0.28630
H223        H  0.03430771  0.20701165  0.52262552     0.19230
H224        H  0.04907805  0.21283937  0.39789621     0.19230
C225        C  0.05483585  0.33890852  0.44182668    -0.06600
C226        C  0.06905482  0.32356471  0.45603141    -0.17730
C227        C  0.05261382  0.29582207  0.47434707     0.10600
C228        C  0.02023299  0.27976703  0.47413241    -0.06520
C229        C  0.00576895  0.29380442  0.45752901    -0.17760
C230        C  0.02248277  0.32367091  0.44339825     0.10630
S231        S  0.07496152  0.28535286  0.50077310    -0.32720
S232        S  0.00101045  0.34199024  0.43222155    -0.32730
H233        H  0.02311321  0.37160832  0.44471220     0.28640
H234        H  0.05306962  0.27123896  0.52670692     0.28630
H235        H  0.09367133  0.33438139  0.45501609     0.19230
H236        H  0.48100839  0.28253001  0.45843250     0.19230
C237        C  0.15842571  0.43580356  0.44366854    -0.06600
C238        C  0.18013554  0.46633703  0.43287878    -0.17730
C239        C  0.20925307  0.48351547  0.44790863     0.10600
C240        C  0.21577384  0.47236003  0.47786821    -0.06520
C241        C  0.19431433  0.44232802  0.48883863    -0.17760
C242        C  0.16846572  0.42281692  0.46929395     0.10630
S243        S  0.23699383  0.01855844  0.42645722    -0.32720
S244        S  0.15467890  0.38178694  0.47385018    -0.32730
H245        H  0.14716933  0.37504702  0.43912883     0.28640
H246        H  0.26263927  0.01801028  0.43866267     0.28630
H247        H  0.17547669  0.47725313  0.41204658     0.19230
H248        H  0.19945975  0.43286013  0.51094189     0.19230
C249        C  0.05215169  0.45309568  0.31715608    -0.06600
C250        C  0.05429522  0.42730131  0.30665399    -0.17730
C251        C  0.06689994  0.41414326  0.32779398     0.10600
C252        C  0.07728754  0.42653128  0.36071152    -0.06520
C253        C  0.07551421  0.45253411  0.37115350    -0.17760
C254        C  0.06283944  0.46568245  0.35001969     0.10630
S255        S  0.06979651  0.38214452  0.31091830    -0.32720
S256        S  0.05923285  0.49712301  0.36731199    -0.32730
H257        H  0.03061344  0.48748808  0.35214864     0.28640
H258        H  0.09582290  0.38838098  0.32991579     0.28630
H259        H  0.04664964  0.41762737  0.28139116     0.19230
H260        H  0.08301122  0.46194745  0.39657792     0.19230
C261        C  0.21672387  0.05228118  0.55400284    -0.06600
C262        C  0.21165574  0.02457991  0.56978728    -0.17730
C263        C  0.22059367  0.00497153  0.55449027     0.10600
C264        C  0.23594242  0.01339562  0.52295456    -0.06520
C265        C  0.24259090  0.04151181  0.50832280    -0.17760
C266        C  0.23312718  0.06072540  0.52252662     0.10630
S267        S  0.21110510  0.46946228  0.57626016    -0.32720
S268        S  0.24251757  0.09482945  0.49772737    -0.32730
H269        H  0.24468379  0.08332057  0.46572822     0.28640
H270        H  0.23405383  0.46572088  0.56139503     0.28630
H271        H  0.20037220  0.01777713  0.59425731     0.19230
H272        H  0.25617516  0.04894834  0.48544622     0.19230
C273        C  0.20985104  0.14714315  0.55507839    -0.06600
C274        C  0.21566323  0.17459411  0.57159198    -0.17730
C275        C  0.22472717  0.20200531  0.55262640     0.10600
C276        C  0.23340471  0.20348806  0.51792171    -0.06520
C277        C  0.22688078  0.17552331  0.50220822    -0.17760
C278        C  0.21170315  0.14725427  0.51940126     0.10630
S279        S  0.22039459  0.23246858  0.57144670    -0.32720
S280        S  0.18925587  0.11161882  0.49527517    -0.32730
H281        H  0.19613645  0.12518577  0.46271041     0.28640
H282        H  0.21058445  0.21872411  0.60368798     0.28630
H283        H  0.21146471  0.17400879  0.59867091     0.19230
H284        H  0.23139724  0.17485807  0.47588566     0.19230
C285        C  0.42281429  0.45037055  0.31923605    -0.06600
C286        C  0.42647752  0.44008822  0.35116542    -0.17730
C287        C  0.40379289  0.43034191  0.37632677     0.10600
C288        C  0.37620571  0.42985865  0.36921507    -0.06520
C289        C  0.37251634  0.43992250  0.33731933    -0.17760
C290        C  0.39513429  0.44988354  0.31237495     0.10630
S291        S  0.41221436  0.42040783  0.41740963    -0.32720
S292        S  0.38612166  0.45996099  0.27177569    -0.32730
H293        H  0.39796521  0.44446267  0.25339369     0.28640
H294        H  0.39566452  0.43079689  0.43636019     0.28630
H295        H  0.44762315  0.44071149  0.35702875     0.19230
H296        H  0.35130088  0.43913975  0.33136672     0.19230
C297        C  0.30065893  0.34545018  0.44639314    -0.06600
C298        C  0.29873333  0.34393511  0.48197494    -0.17730
C299        C  0.28630442  0.31561009  0.49895020     0.10600
C300        C  0.27695292  0.28780291  0.48043183    -0.06520
C301        C  0.27806869  0.28917880  0.44466756    -0.17760
C302        C  0.28925804  0.31749956  0.42747856     0.10630
S303        S  0.28169796  0.31655468  0.54419123    -0.32720
S304        S  0.28785078  0.31619343  0.38159174    -0.32730
H305        H  0.28219177  0.34078174  0.37782843     0.28640
H306        H  0.25159054  0.29114128  0.54299682     0.28630
H307        H  0.30669700  0.36508924  0.49678474     0.19230
H308        H  0.27079672  0.26824411  0.42991475     0.19230
C309        C  0.29893584  0.44372356  0.43590688    -0.06600
C310        C  0.31837816  0.47569042  0.44259322    -0.17730
C311        C  0.30785158  0.49290872  0.46009505     0.10600
C312        C  0.27796221  0.47746363  0.47447371    -0.06520
C313        C  0.25830983  0.44592554  0.46581743    -0.17760
C314        C  0.26763103  0.42988035  0.44465673     0.10630
S315        S  0.33431140  0.53432128  0.46398310    -0.32720
S316        S  0.23818450  0.39182200  0.42979106    -0.32730
H317        H  0.25400838  0.39210111  0.40028466     0.28640
H318        H  0.31167574  0.04240640  0.46597195     0.28630
H319        H  0.34225147  0.48729788  0.43522243     0.19230
H320        H  0.23604104  0.43256567  0.47685300     0.19230
C321        C  0.47723719  0.19607341  0.51426250    -0.06600
C322        C  0.47842202  0.19827836  0.55003589    -0.17730
C323        C  0.46202707  0.17172619  0.57034860     0.10600
C324        C  0.44536103  0.14203128  0.55472487    -0.06520
C325        C  0.44471969  0.13979972  0.51919534    -0.17760
C326        C  0.45984208  0.16618546  0.49894786     0.10690
S327        S  0.46299406  0.17740485  0.61577657    -0.32720
S328        S  0.45611775  0.15970044  0.45361548    -0.32730
H329        H  0.44911905  0.18293060  0.44752248     0.28640
H330        H  0.43301795  0.15259971  0.62178066     0.28630
H331        H  0.49261140  0.22070690  0.56226705     0.19230
H332        H  0.43200153  0.11710780  0.50699746     0.19230
C333        C  0.34547747  0.04461906  0.57115917    -0.06600
C334        C  0.33413761  0.01280970  0.56504482    -0.17730
C335        C  0.30719669  0.99462684  0.54612810     0.10600
C336        C  0.29249049  0.00897620  0.53008559    -0.06520
C337        C  0.30323811  0.04040463  0.53806814    -0.17760
C338        C  0.32763422  0.05731451  0.56039890     0.10630
S339        S  0.29377243  0.45359086  0.54243161    -0.32720
S340        S  0.33502387  0.09525071  0.57359509    -0.32730
H341        H  0.35037688  0.09636328  0.60388689     0.28640
H342        H  0.26269046  0.44403298  0.53845159     0.28630
H343        H  0.34688488  0.00220242  0.57381235     0.19230
H344        H  0.29422807  0.05304138  0.52560223     0.19230
C345        C  0.45830852  0.41072129  0.67749984    -0.06600
C346        C  0.47875840  0.41092732  0.65351932    -0.17730
C347        C  0.46872239  0.38868888  0.62743942     0.10600
C348        C  0.43810165  0.36328390  0.62720114    -0.06520
C349        C  0.41748020  0.36355189  0.65090451    -0.17760
C350        C  0.42686745  0.38750960  0.67506122     0.10630
S351        S  0.99527778  0.39652231  0.59341118    -0.32720
S352        S  0.39706681  0.38660705  0.70096532    -0.32730
H353        H  0.41522277  0.40729716  0.72670922     0.28640
H354        H  0.47272040  0.38352773  0.56776999     0.28630
H355        H  0.00256818  0.42960794  0.65409880     0.19230
H356        H  0.39369398  0.34489457  0.65067285     0.19230
C357        C  0.08611840  0.03077207  0.67351618    -0.06600
C358        C  0.10977901  0.02436674  0.67693605    -0.17730
C359        C  0.13476676  0.03699596  0.65438977     0.10600
C360        C  0.13571945  0.05580250  0.62681255    -0.06520
C361        C  0.11133121  0.06132015  0.62302173    -0.17760
C362        C  0.08681787  0.04921930  0.64604061     0.10630
S363        S  0.16645486  0.03130565  0.66349403    -0.32720
S364        S  0.05704782  0.05806473  0.63907246    -0.32730
H365        H  0.03309056  0.02917480  0.65075635     0.28640
H366        H  0.15221782  0.00927115  0.68961442     0.28630
H367        H  0.10933005  0.51064822  0.69847231     0.19230
H368        H  0.11131751  0.07524221  0.60194349     0.19230
C369        C  0.43801006  0.06296036  0.63838093    -0.06600
C370        C  0.43310923  0.03289197  0.63303782    -0.17730
C371        C  0.44780541  0.02138721  0.65315906     0.10600
C372        C  0.46807013  0.04027656  0.67914420    -0.06520
C373        C  0.47382263  0.07060806  0.68386106    -0.17760
C374        C  0.45840228  0.08182273  0.66454957     0.10630
S375        S  0.44035530  0.48272327  0.64406291    -0.32720
S376        S  0.46407558  0.11932485  0.67646888    -0.32730
H377        H  0.43423407  0.11209063  0.66797833     0.28640
H378        H  0.47001635  0.48940237  0.65260160     0.28630
H379        H  0.41806733  0.01840013  0.61267409     0.19230
H380        H  0.48918439  0.08507342  0.70400546     0.19230
C381        C  0.07768935  0.13239649  0.13102724    -0.06600
C382        C  0.07933177  0.10589907  0.12264418    -0.17730
C383        C  0.06650251  0.07954720  0.14371355     0.10600
C384        C  0.05212266  0.07964868  0.17451232    -0.06520
C385        C  0.05026308  0.10612763  0.18250846    -0.17760
C386        C  0.06305234  0.13238467  0.16155911     0.10630
S387        S  0.06796610  0.04623506  0.12882156    -0.32720
S388        S  0.06108890  0.16557272  0.17626672    -0.32730
H389        H  0.08968572  0.18824530  0.16312028     0.28640
H390        H  0.03801586  0.02425675  0.13929109     0.28630
H391        H  0.09005216  0.10542207  0.09898526     0.19230
H392        H  0.03956373  0.10693886  0.20598230     0.19230
C393        C  0.16286820  0.20622862  0.05472863    -0.06600
C394        C  0.19024171  0.21675270  0.07299878    -0.17730
C395        C  0.21791167  0.22592365  0.05601658     0.10600
C396        C  0.21861492  0.22691329  0.01989761    -0.06520
C397        C  0.19116962  0.21689221  0.00209047    -0.17760
C398        C  0.16342283  0.20508289  0.01881680     0.10630
S399        S  0.25049472  0.23405120  0.08188976    -0.32720
S400        S  0.12945743  0.18622121  0.99252013    -0.32730
H401        H  0.11113690  0.16326412  0.01646389     0.28640
H402        H  0.26326491  0.22284942  0.05822948     0.28630
H403        H  0.18985516  0.21691761  0.10058889     0.19230
H404        H  0.19092313  0.21606970  0.97452699     0.19230
C405        C  0.03440663  0.22535204  0.01085206    -0.06600
C406        C  0.03261385  0.22584148  0.04665538    -0.17730
C407        C  0.04918202  0.21686450  0.06748288     0.10600
C408        C  0.06665295  0.20544983  0.05227553    -0.06520
C409        C  0.06706966  0.20349239  0.01666391    -0.17760
C410        C  0.05183414  0.21374880  0.99596787     0.10630
S411        S  0.04711193  0.22066254  0.11291988    -0.32720
S412        S  0.05586368  0.21148876  0.95067243    -0.32730
H413        H  0.05706622  0.23961208  0.94372452     0.28640
H414        H  0.07671012  0.22657451  0.12021710     0.28630
H415        H  0.01773874  0.23260262  0.05856286     0.19230
H416        H  0.07979087  0.19415901  0.00469113     0.19230
C417        C  0.21057943  0.47049480  0.01975031    -0.06600
C418        C  0.21546428  0.47077542  0.05522086    -0.17730
C419        C  0.19089325  0.45420150  0.07783746     0.10600
C420        C  0.16073436  0.43783363  0.06486112    -0.06520
C421        C  0.15588942  0.43838937  0.02984559    -0.17760
C422        C  0.18007037  0.45366528  0.00725448     0.10630
S423        S  0.19961582  0.45506222  0.12248913    -0.32720
S424        S  0.16969631  0.44916897  0.96272373    -0.32730
H425        H  0.19530566  0.44836557  0.95100682     0.28640
H426        H  0.17191384  0.42861277  0.13228250     0.28630
H427        H  0.23849232  0.48417346  0.06543065     0.19230
H428        H  0.13270908  0.42563844  0.01975864     0.19230
C429        C  0.03764619  0.28562442  0.01367028    -0.06600
C430        C  0.02411682  0.28792223  0.04394298    -0.17730
C431        C  0.03984183  0.31297448  0.06654411     0.10600
C432        C  0.06873336  0.33854343  0.05711809    -0.06520
C433        C  0.08236455  0.33576923  0.02702511    -0.17760
C434        C  0.06818087  0.30892662  0.00687317     0.10630
S435        S  0.02225276  0.30961896  0.10740283    -0.32720
S436        S  0.09129701  0.30540470  0.97470589    -0.32730
H437        H  0.08735530  0.27775154  0.98849060     0.28640
H438        H  0.05008064  0.32662917  0.12533872     0.28630
H439        H  0.50125879  0.26952551  0.05062984     0.19230
H440        H  0.10447376  0.35455597  0.01873934     0.19230
C441        C  0.06876047  0.42426518  0.12625789    -0.06600
C442        C  0.04704325  0.40416947  0.15020319    -0.17730
C443        C  0.03354546  0.41481789  0.17346223     0.10600
C444        C  0.04218679  0.44658143  0.17350309    -0.06520
C445        C  0.06289102  0.46641354  0.14880791    -0.17760
C446        C  0.07529574  0.45542486  0.12446139     0.10630
S447        S  0.00674558  0.38691902  0.20345204    -0.32720
S448        S  0.09764738  0.48185656  0.09080841    -0.32730
H449        H  0.09026931  0.45845947  0.06623586     0.28640
H450        H  0.01594497  0.40769179  0.23102575     0.28630
H451        H  0.04146051  0.38016634  0.15187778     0.19230
H452        H  0.06903746  0.49058632  0.14812938     0.19230
C453        C  0.14398530  0.06369380  0.86346017    -0.06600
C454        C  0.11757957  0.06421768  0.87292122    -0.17730
C455        C  0.09166070  0.05161787  0.85172652     0.10600
C456        C  0.09213400  0.03858444  0.81983579    -0.06520
C457        C  0.11850528  0.03788636  0.81062969    -0.17760
C458        C  0.14438336  0.05056126  0.83169261     0.10630
S459        S  0.05840886  0.05163881  0.86762254    -0.32720
S460        S  0.17763130  0.05056807  0.81563360    -0.32730
H461        H  0.19932992  0.07922099  0.83048832     0.28640
H462        H  0.03721038  0.02161938  0.85525233     0.28630
H463        H  0.11688093  0.07388046  0.89742731     0.19230
H464        H  0.11944334  0.02832273  0.78614908     0.19230
C465        C  0.21748821  0.14878941  0.94164154    -0.06600
C466        C  0.22679982  0.17646217  0.92369290    -0.17730
C467        C  0.23640580  0.20461671  0.94098270     0.10600
C468        C  0.23882725  0.20550329  0.97699410    -0.06520
C469        C  0.22995314  0.17781730  0.99458577    -0.17760
C470        C  0.21804017  0.14951339  0.97763297     0.10630
S471        S  0.24333006  0.23759459  0.91568093    -0.32720
S472        S  0.20144474  0.11509713  0.00386223    -0.32730
H473        H  0.17803258  0.09590115  0.98076971     0.28640
H474        H  0.23235197  0.25014105  0.93990884     0.28630
H475        H  0.22576345  0.17593311  0.89611370     0.19230
H476        H  0.23039311  0.17791222  0.02218370     0.19230
C477        C  0.21758653  0.05105132  0.93790416    -0.06600
C478        C  0.21922949  0.05263858  0.97357897    -0.17730
C479        C  0.22793410  0.03498834  0.99237184     0.10600
C480        C  0.23307526  0.01304763  0.97570128    -0.06520
C481        C  0.23248177  0.01193947  0.93982470    -0.17760
C482        C  0.22523563  0.03104784  0.92076614     0.10630
S483        S  0.23329273  0.04266727  0.03753098    -0.32720
S484        S  0.22665572  0.02915238  0.87502929    -0.32730
H485        H  0.23504313  0.06031788  0.86933564     0.28640
H486        H  0.25815315  0.03782600  0.04009906     0.28630
H487        H  0.21389558  0.06806610  0.98718578     0.19230
H488        H  0.23721370  0.99578851  0.92665951     0.19230
C489        C  0.42076988  0.45339931  0.17781754    -0.06600
C490        C  0.39432487  0.42486740  0.18620015    -0.17730
C491        C  0.36711692  0.41308791  0.16757839     0.10600
C492        C  0.36632089  0.42914437  0.13846048    -0.06520
C493        C  0.39276917  0.45741355  0.12963466    -0.17760
C494        C  0.41990437  0.46955007  0.14867400     0.10630
S495        S  0.33392807  0.37817847  0.18328931    -0.32720
S496        S  0.45294479  0.50454080  0.13299318    -0.32730
H497        H  0.47360164  0.99429966  0.13953122     0.28640
H498        H  0.31224357  0.38514049  0.17059976     0.28630
H499        H  0.39436584  0.41194191  0.20826712     0.19230
H500        H  0.39269986  0.46950920  0.10679977     0.19230
C501        C  0.28022330  0.28671423  0.02259078    -0.06600
C502        C  0.25954075  0.29730445  0.02621736    -0.17730
C503        C  0.26690613  0.32372918  0.04565810     0.10600
C504        C  0.29715913  0.34274695  0.05841843    -0.06520
C505        C  0.31767797  0.33199401  0.05516960    -0.17760
C506        C  0.30911159  0.30369248  0.03918204     0.10630
S507        S  0.23606751  0.33074263  0.05423013    -0.32720
S508        S  0.33648849  0.29095857  0.04116451    -0.32730
H509        H  0.31447184  0.25897035  0.04143225     0.28640
H510        H  0.24725255  0.34458073  0.08633559     0.28630
H511        H  0.23752033  0.28527559  0.01350972     0.19230
H512        H  0.34084037  0.34576027  0.06490616     0.19230
C513        C  0.27038098  0.47075461  0.01959903    -0.06600
C514        C  0.29972049  0.48799969  0.03458558    -0.17730
C515        C  0.31289387  0.47354287  0.05243160     0.10600
C516        C  0.29493917  0.44128934  0.05931387    -0.06520
C517        C  0.26426256  0.42481788  0.04806494    -0.17760
C518        C  0.25247057  0.43838235  0.02658611     0.10630
S519        S  0.35346980  0.49603355  0.06204812    -0.32720
S520        S  0.21622368  0.41167127  0.00668925    -0.32730
H521        H  0.22152155  0.42896270  0.97702346     0.28640
H522        H  0.35960448  0.52436914  0.04753421     0.28630
H523        H  0.31344632  0.51278885  0.02975190     0.19230
H524        H  0.25003749  0.40017515  0.05358415     0.19230
C525        C  0.46716142  0.41103476  0.82379462    -0.06600
C526        C  0.48213678  0.41680482  0.85544014    -0.17730
C527        C  0.47076429  0.39422577  0.88129183     0.10600
C528        C  0.44430390  0.36459487  0.87507031    -0.06520
C529        C  0.42972543  0.35894775  0.84332164    -0.17760
C530        C  0.44071734  0.38147757  0.81789535     0.10630
S531        S  0.99017022  0.40545894  0.92190417    -0.32720
S532        S  0.42069162  0.36982213  0.77785979    -0.32730
H533        H  0.44750442  0.38357904  0.75809219     0.28640
H534        H  0.46375703  0.38724062  0.94153667     0.28630
H535        H  0.00225597  0.43944038  0.86048853     0.19230
H536        H  0.40991313  0.33622212  0.83776333     0.19230
C537        C  0.35363074  0.28288078  0.93972733    -0.06600
C538        C  0.34229443  0.30334584  0.94138758    -0.17730
C539        C  0.31418744  0.29471907  0.95611082     0.10600
C540        C  0.29793628  0.26613333  0.97371866    -0.06520
C541        C  0.30820122  0.24488432  0.97090493    -0.17760
C542        C  0.33461172  0.25209971  0.95229467     0.10630
S543        S  0.30124753  0.32216863  0.95219314    -0.32720
S544        S  0.34159445  0.22081821  0.94283644    -0.32730
H545        H  0.32136961  0.19952764  0.96707354     0.28640
H546        H  0.26988373  0.30020349  0.95515693     0.28630
H547        H  0.35562972  0.32698265  0.93215994     0.19230
H548        H  0.29600561  0.22282282  0.98399493     0.19230
C549        C  0.45664204  0.28998346  0.95002617    -0.06600
C550        C  0.48234464  0.29552717  0.93085339    -0.17730
C551        C  0.50272916  0.28670051  0.94238219     0.10600
C552        C  0.49503422  0.26698347  0.97107795    -0.06520
C553        C  0.46802971  0.25902201  0.98872331    -0.17760
C554        C  0.45061867  0.27258836  0.98063465     0.10630
S555        S  0.53866135  0.30364803  0.91994245    -0.32720
S556        S  0.42529909  0.27097243  0.01380675    -0.32730
H557        H  0.43006460  0.30079446  0.00711188     0.28640
H558        H  0.54602344  0.28146627  0.92958185     0.28630
H559        H  0.48760521  0.30789893  0.90695876     0.19230
H560        H  0.46246713  0.24505068  0.01155574     0.19230
C561        C  0.44782877  0.14133714  0.95025529    -0.06600
C562        C  0.46277603  0.16611597  0.92742612    -0.17730
C563        C  0.48260335  0.19669336  0.93872211     0.10600
C564        C  0.48715612  0.20301580  0.97418210    -0.06520
C565        C  0.46972397  0.17836330  0.99690338    -0.17760
C566        C  0.45100059  0.14766435  0.98552927     0.10630
S567        S  0.50288845  0.22594070  0.90692210    -0.32720
S568        S  0.43418274  0.11759629  0.01745040    -0.32730
H569        H  0.43613462  0.09485447  0.99828139     0.28640
H570        H  0.48960513  0.20728791  0.87779907     0.28630
H571        H  0.45946241  0.16112504  0.90038685     0.19230
H572        H  0.47264883  0.18264237  0.02410101     0.19230
C573        C  0.28776566  0.00660559  0.96879606    -0.06600
C574        C  0.30120531  0.03916935  0.96721787    -0.17730
C575        C  0.32808480  0.05765590  0.94878075     0.10600
C576        C  0.34511811  0.04438961  0.93630611    -0.06520
C577        C  0.33115492  0.01176283  0.93684590    -0.17760
C578        C  0.30220193  0.99293738  0.95105777     0.10630
S579        S  0.33821038  0.09739904  0.94089106    -0.32720
S580        S  0.28513168  0.45148929  0.94657120    -0.32730
H581        H  0.25716114  0.44762690  0.93517840     0.28640
H582        H  0.35430128  0.10044002  0.91062660     0.28630
H583        H  0.29117473  0.05063228  0.98073146     0.19230
H584        H  0.34297820  0.00054411  0.92698498     0.19230
C585        C  0.46360623  0.03654991  0.82283534    -0.06600
C586        C  0.44727083  0.01803225  0.85092071    -0.17730
C587        C  0.43407640  0.02829725  0.87512303     0.10600
C588        C  0.43671686  0.05770586  0.87122020    -0.06520
C589        C  0.45316137  0.07633520  0.84344824    -0.17760
C590        C  0.46610905  0.06602545  0.81910175     0.10630
S591        S  0.41475337  0.50304099  0.91071207    -0.32720
S592        S  0.48331964  0.09074624  0.78269596    -0.32730
H593        H  0.96664429  0.06616234  0.75950357     0.28640
H594        H  0.42304699  0.02728378  0.93466305     0.28630
H595        H  0.44487545  0.49541063  0.85427702     0.19230
H596        H  0.45503621  0.09877548  0.84005918     0.19230
C597        C  0.42266328  0.56974722  0.89539240     0.02650
C598        C  0.39095497  0.55311774  0.90171418    -0.13490
C599        C  0.37808824  0.56367378  0.92638263     0.00160
C600        C  0.39765320  0.59157698  0.94394348    -0.12020
C601        C  0.42872560  0.60963234  0.93576920     0.02650
C602        C  0.44120718  0.59841760  0.91180707    -0.11440
H603        H  0.37655540  0.53187048  0.88750845     0.08240
H604        H  0.38883880  0.59962275  0.96400915     0.05770
H605        H  0.46548970  0.61197524  0.90611798     0.05620
C606        C  0.43130630  0.83846288  0.89996906     0.02650
C607        C  0.44982181  0.82903896  0.91602233    -0.13490
C608        C  0.43699202  0.80215757  0.93665840     0.00160
C609        C  0.40517066  0.78613614  0.94247326    -0.12020
C610        C  0.38616554  0.79591530  0.92802227     0.02650
C611        C  0.39957757  0.82127423  0.90541497    -0.11440
H612        H  0.47422859  0.84245776  0.91153662     0.08240
H613        H  0.39531126  0.76626346  0.95876694     0.05770
H614        H  0.38540543  0.82825374  0.89215947     0.05620
C615        C  0.34004517  0.91540226  0.11434141     0.02650
C616        C  0.32771925  0.93315450  0.10232491    -0.13490
C617        C  0.30786373  0.92292444  0.07402401     0.00160
C618        C  0.29981403  0.89419009  0.05890594    -0.12020
C619        C  0.30839963  0.87426202  0.07346084     0.02650
C620        C  0.32939293  0.88554324  0.10065832    -0.11440
H621        H  0.33413060  0.95504281  0.11474186     0.08240
H622        H  0.28651304  0.88715923  0.03557672     0.05770
H623        H  0.33811337  0.87147710  0.11078954     0.05620
C624        C  0.17047902  0.57671305  0.88723072     0.02650
C625        C  0.18241836  0.55829099  0.89853131    -0.13490
C626        C  0.20788892  0.57094891  0.92053018     0.00160
C627        C  0.22127750  0.60208513  0.93093279    -0.12020
C628        C  0.20770537  0.61947714  0.92287004     0.02650
C629        C  0.18286891  0.60714926  0.90016699    -0.11440
H630        H  0.17129486  0.53397289  0.89108800     0.08240
H631        H  0.24078869  0.61197592  0.94812540     0.05770
H632        H  0.17262288  0.62082044  0.89341619     0.05620
C633        C  0.08552983  0.91234001  0.10598551     0.02650
C634        C  0.06938567  0.88232418  0.09118764    -0.13490
C635        C  0.08507494  0.86859707  0.07670347     0.00160
C636        C  0.11721324  0.88600339  0.07649724    -0.12020
C637        C  0.13303535  0.91763313  0.08498425     0.02650
C638        C  0.11761734  0.93022774  0.10197000    -0.11440
H639        H  0.04462970  0.87018916  0.09041201     0.08240
H640        H  0.13009715  0.87644650  0.06524253     0.05770
H641        H  0.13049318  0.95420285  0.11059782     0.05620
C642        C  0.26248464  0.98773379  0.99384186     0.00090
C643        C  0.23668119  0.98992167  0.99607405     0.00090
C644        C  0.09105556  0.65933533  0.10733362     0.02650
C645        C  0.07298786  0.67090130  0.09414514    -0.13490
C646        C  0.08579653  0.69626614  0.07161618     0.00160
C647        C  0.11665183  0.71002755  0.06260833    -0.12020
C648        C  0.13393466  0.69693325  0.07278112     0.02650
C649        C  0.12145384  0.67219876  0.09600353    -0.11440
H650        H  0.04886475  0.65952435  0.10043825     0.08240
H651        H  0.12641649  0.72920343  0.04467410     0.05770
H652        H  0.13491231  0.66216711  0.10414493     0.05620
C653        C  0.01395832  0.73178737  0.98940612     0.00090
C654        C  0.01753487  0.76089407  0.98847162     0.00090
C655        C  0.24543109  0.73289577  0.99854735     0.00090
C656        C  0.27308592  0.76039790  0.99845073     0.00090
O657        O  0.99873247  0.54248479  0.77872209    -0.85820
O658        O  0.04978889  0.53819392  0.79261462    -0.82870
C659        C  0.06644921  0.52636454  0.79493217     0.97640
O660        O  0.06259796  0.00493199  0.77463211    -0.82900
O661        O  0.00754800  0.95376921  0.79386177    -0.85550
C662        C  0.47906004  0.93604537  0.79778512     1.02170
O663        O  0.46043695  0.93886915  0.77890265    -0.78310
O664        O  0.46539063  0.99504502  0.79504885    -0.78500
C665        C  0.47678270  0.52411795  0.79781134     1.02120
O666        O  0.00855371  0.53914946  0.70748475    -0.85820
O667        O  0.06197003  0.53974701  0.72032525    -0.82880
C668        C  0.06259681  0.51996069  0.70055060     0.97660
O669        O  0.04463158  0.99113433  0.70488387    -0.82910
O670        O  0.99213115  0.93684700  0.72334389    -0.85520
C671        C  0.47114073  0.93489905  0.70427382     1.02130
O672        O  0.46152590  0.95342442  0.70793248    -0.78340
O673        O  0.46148555  0.00653524  0.72427452    -0.78480
C674        C  0.48008073  0.52771517  0.70450853     1.02090
Cr675      Cr  0.02805689  0.53651866  0.74991265     1.93740
Cr676      Cr  0.02512899  0.97343092  0.74930245     1.93210
Cr677      Cr  0.46558163  0.97511126  0.75149892     1.39100
O678        O  0.00625827  0.99508753  0.75011803    -1.23570
C679        C  0.42298160  0.57438167  0.61492782     0.02650
C680        C  0.39142538  0.55570143  0.60740332    -0.13490
C681        C  0.37781913  0.56510639  0.58264746     0.00160
C682        C  0.39624936  0.59336720  0.56570249    -0.12020
C683        C  0.42715923  0.61280911  0.57397545     0.02650
C684        C  0.44068937  0.60292422  0.59796341    -0.11440
H685        H  0.37769317  0.53370582  0.62041953     0.08240
H686        H  0.38671225  0.60016336  0.54513428     0.05770
H687        H  0.46514803  0.61696894  0.60255872     0.05620
C688        C  0.35024865  0.91782618  0.39352992     0.02650
C689        C  0.33683824  0.93573790  0.40163125    -0.13490
C690        C  0.31231446  0.92454353  0.42478605     0.00160
C691        C  0.30183159  0.89538932  0.43988256    -0.12020
C692        C  0.31343969  0.87644571  0.43038634     0.02650
C693        C  0.33785930  0.88784979  0.40737988    -0.11440
H694        H  0.34574627  0.95843815  0.39011376     0.08240
H695        H  0.28439201  0.88719498  0.45939756     0.05770
H696        H  0.34740849  0.87354976  0.40053023     0.05620
C697        C  0.16249606  0.57133880  0.60306420     0.02650
C698        C  0.17476104  0.60280691  0.59381706    -0.13490
C699        C  0.20118671  0.61792836  0.57376666     0.00160
C700        C  0.21715669  0.60262041  0.56634209    -0.12020
C701        C  0.20319312  0.57018251  0.57001703     0.02650
C702        C  0.17534029  0.55471380  0.58842913    -0.11440
H703        H  0.16357544  0.61534476  0.60152785     0.08240
H704        H  0.23982004  0.61626047  0.55578908     0.05770
H705        H  0.16336521  0.52967282  0.59146977     0.05620
C706        C  0.08798563  0.91191678  0.38589526     0.02650
C707        C  0.11764837  0.92924113  0.39982539    -0.13490
C708        C  0.12629565  0.91841215  0.42858599     0.00160
C709        C  0.10289808  0.89131440  0.44430240    -0.12020
C710        C  0.07502827  0.87108568  0.42774136     0.02650
C711        C  0.06784223  0.88167900  0.39800613    -0.11440
H712        H  0.13312701  0.95123010  0.38796724     0.08240
H713        H  0.10610473  0.88534831  0.46968111     0.05770
H714        H  0.04635547  0.86712272  0.38488286     0.05620
C715        C  0.00019550  0.75207515  0.49609762     0.00090
C716        C  0.99858334  0.72381674  0.49327667     0.00090
C717        C  0.26916977  0.99275119  0.50193719     0.00090
C718        C  0.24180941  0.99238908  0.50132126     0.00090
C719        C  0.08845677  0.65926336  0.38775033     0.02650
C720        C  0.06870275  0.66683450  0.40434266    -0.13490
C721        C  0.07987658  0.68996738  0.42942925     0.00160
C722        C  0.11055740  0.70435094  0.43951059    -0.12020
C723        C  0.13176411  0.69944399  0.42178933     0.02650
C724        C  0.12017466  0.67739236  0.39464325    -0.11440
H725        H  0.04438162  0.65410656  0.39864621     0.08240
H726        H  0.11723117  0.71888436  0.46187983     0.05770
H727        H  0.13517417  0.67324275  0.37906015     0.05620
C728        C  0.42674412  0.83670359  0.60252110     0.02650
C729        C  0.44345338  0.82167753  0.59603163    -0.13490
C730        C  0.43354409  0.79801814  0.57092251     0.00160
C731        C  0.40503845  0.78784041  0.55513523    -0.12020
C732        C  0.38661126  0.79998639  0.56397653     0.02650
C733        C  0.39822962  0.82544908  0.58634226    -0.11440
H734        H  0.46394995  0.82848947  0.61070154     0.08240
H735        H  0.39665915  0.77008354  0.53554386     0.05770
H736        H  0.38494179  0.83643114  0.59115244     0.05620
C737        C  0.27038787  0.75855245  0.49831392     0.00090
C738        C  0.24248149  0.73144172  0.49573420     0.00090
O739        O  0.05092976  0.98251609  0.21770502    -0.85820
O740        O  0.05024081  0.53602761  0.20279055    -0.82870
C741        C  0.03943902  0.55367288  0.19960229     0.97640
O742        O  0.01853617  0.55071509  0.21928756    -0.82900
O743        O  0.46617534  0.99500873  0.20366338    -0.85550
C744        C  0.44744586  0.96607015  0.20154265     1.02170
O745        O  0.44982093  0.94763688  0.22159641    -0.78310
O746        O  0.00296750  0.94858543  0.20440559    -0.78500
C747        C  0.03130693  0.96003785  0.19962010     1.02120
O748        O  0.05078826  0.99503647  0.28939634    -0.85820
O749        O  0.05407503  0.55077432  0.27438512    -0.82880
C750        C  0.03590591  0.55468049  0.29289790     0.97660
O751        O  0.00726166  0.53710725  0.28980979    -0.82910
O752        O  0.45195788  0.98421047  0.27439415    -0.85520
C753        C  0.44837792  0.96280603  0.29428344     1.02130
O754        O  0.46586444  0.95183086  0.29221549    -0.78340
O755        O  0.01651061  0.94722496  0.27457864    -0.78480
C756        C  0.03897763  0.96597215  0.29290907     1.02090
Cr757      Cr  0.04803834  0.51433627  0.24619585     1.93740
Cr758      Cr  0.48768053  0.51492315  0.24681753     1.93210
Cr759      Cr  0.48567430  0.95238601  0.24819265     1.39100
O760        O  0.00725147  0.99391208  0.24712701    -1.23570
C761        C  0.35552339  0.78606881  0.54863874    -0.06600
C762        C  0.35247020  0.78097457  0.51335910    -0.17730
C763        C  0.32400409  0.76790174  0.49733052     0.10600
C764        C  0.29759869  0.76100047  0.51621112    -0.06520
C765        C  0.30040424  0.76453574  0.55176711    -0.17760
C766        C  0.32877923  0.77640608  0.56820124     0.10630
S767        S  0.32283252  0.76044770  0.45247183    -0.32720
S768        S  0.32911397  0.77865127  0.61406828    -0.32730
H769        H  0.35256604  0.77193024  0.61868233     0.28640
H770        H  0.30823647  0.72808113  0.45781523     0.28630
H771        H  0.37252671  0.78747003  0.49793473     0.19230
H772        H  0.28092644  0.75976529  0.56695044     0.19230
C773        C  0.21858691  0.72869586  0.47110718    -0.06600
C774        C  0.20313936  0.74459545  0.47798245    -0.17730
C775        C  0.17828676  0.73982233  0.45779419     0.10600
C776        C  0.16450059  0.71416041  0.43450095    -0.06520
C777        C  0.18205867  0.70071900  0.42563520    -0.17760
C778        C  0.21008897  0.70990197  0.44131526     0.10630
S779        S  0.16914435  0.77026018  0.45951299    -0.32720
S780        S  0.23481636  0.69999602  0.41856817    -0.32730
H781        H  0.26041402  0.71716289  0.43936492     0.28640
H782        H  0.15720323  0.76500559  0.42619666     0.28630
H783        H  0.21136099  0.76186911  0.49818153     0.19230
H784        H  0.17473862  0.68313769  0.40606275     0.19230
C785        C  0.07551319  0.63218350  0.36360441    -0.06600
C786        C  0.05283406  0.62844538  0.34029132    -0.17730
C787        C  0.03913112  0.60317982  0.31764563     0.10600
C788        C  0.04868060  0.58112938  0.31726439    -0.06520
C789        C  0.07144851  0.58480031  0.34026292    -0.17760
C790        C  0.08414122  0.60928637  0.36409918     0.10630
S791        S  0.51013458  0.60105391  0.28941642    -0.32720
S792        S  0.10933689  0.60836255  0.39585250    -0.32730
H793        H  0.09870855  0.61903889  0.42267903     0.28640
H794        H  0.51908281  0.59035790  0.26129683     0.28630
H795        H  0.04583376  0.64557897  0.33940869     0.19230
H796        H  0.07851532  0.56769547  0.34056741     0.19230
C797        C  0.48237509  0.75860180  0.52197117    -0.06600
C798        C  0.49895512  0.78642881  0.54070194    -0.17730
C799        C  0.48435448  0.80025648  0.55670652     0.10600
C800        C  0.45192701  0.78354265  0.55970521    -0.06520
C801        C  0.43594127  0.75272922  0.54668686    -0.17760
C802        C  0.45009639  0.74176922  0.52485352     0.10630
S803        S  0.50871487  0.84088542  0.56628493    -0.32720
S804        S  0.42504788  0.70966544  0.49753016    -0.32730
H805        H  0.44260944  0.72358087  0.46824767     0.28640
H806        H  0.49123572  0.84900102  0.54567624     0.28630
H807        H  0.52373959  0.79975880  0.53883744     0.19230
H808        H  0.41141113  0.73820612  0.55001187     0.19230
C809        C  0.02192046  0.71943793  0.47498032    -0.06600
C810        C  0.03729623  0.70841797  0.49522753    -0.17730
C811        C  0.05500568  0.69741743  0.48107761     0.10600
C812        C  0.05942298  0.69906385  0.44562806    -0.06520
C813        C  0.04542340  0.71131317  0.42518326    -0.17760
C814        C  0.02637036  0.72112584  0.43920143     0.10630
S815        S  0.06973415  0.67991143  0.50963704    -0.32720
S816        S  0.00802649  0.73384319  0.40932459    -0.32730
H817        H  0.98495531  0.73151256  0.43062531     0.28640
H818        H  0.06811173  0.65780565  0.48613159     0.28630
H819        H  0.03430674  0.70700715  0.52262039     0.19230
H820        H  0.04908350  0.71284191  0.39789192     0.19230
C821        C  0.05484695  0.83891309  0.44182885    -0.06600
C822        C  0.06906390  0.82356710  0.45603316    -0.17730
C823        C  0.05262072  0.79582296  0.47434584     0.10600
C824        C  0.02023993  0.77976907  0.47412850    -0.06520
C825        C  0.00577805  0.79380885  0.45752545    -0.17760
C826        C  0.02249382  0.82367653  0.44339797     0.10630
S827        S  0.07496553  0.78535003  0.50077186    -0.32720
S828        S  0.00102363  0.84199848  0.43222261    -0.32730
H829        H  0.02312703  0.87161534  0.44471551     0.28640
H830        H  0.05307231  0.77123607  0.52670441     0.28630
H831        H  0.09368035  0.83438289  0.45501970     0.19230
H832        H  0.48101751  0.78253536  0.45842716     0.19230
C833        C  0.15844001  0.93580460  0.44367432    -0.06600
C834        C  0.18015029  0.96633884  0.43288728    -0.17730
C835        C  0.20926860  0.98351476  0.44791589     0.10600
C836        C  0.21579017  0.97235614  0.47787245    -0.06520
C837        C  0.19432978  0.94232371  0.48884098    -0.17760
C838        C  0.16847973  0.92281511  0.46929684     0.10630
S839        S  0.23697816  0.51855794  0.42644778    -0.32720
S840        S  0.15468927  0.88178420  0.47385073    -0.32730
H841        H  0.14717865  0.87504609  0.43912936     0.28640
H842        H  0.26262449  0.51801588  0.43866104     0.28630
H843        H  0.17549106  0.97725767  0.41205823     0.19230
H844        H  0.19947479  0.93285377  0.51094271     0.19230
C845        C  0.05217149  0.95310307  0.31715713    -0.06600
C846        C  0.05431546  0.92730873  0.30665598    -0.17730
C847        C  0.06691925  0.91415057  0.32779715     0.10600
C848        C  0.07730568  0.92653856  0.36071492    -0.06520
C849        C  0.07553236  0.95254165  0.37115588    -0.17760
C850        C  0.06285827  0.96568998  0.35002092     0.10630
S851        S  0.06981553  0.88215120  0.31092292    -0.32720
S852        S  0.05925064  0.99713023  0.36731218    -0.32730
H853        H  0.03063088  0.98749397  0.35214896     0.28640
H854        H  0.09584101  0.88838710  0.32992192     0.28630
H855        H  0.04667041  0.91763446  0.28139318     0.19230
H856        H  0.08302843  0.96195493  0.39658049     0.19230
C857        C  0.21669072  0.55227136  0.55400283    -0.06600
C858        C  0.21163497  0.52457598  0.56978968    -0.17730
C859        C  0.22057760  0.50497234  0.55449039     0.10600
C860        C  0.23592222  0.51339823  0.52295188    -0.06520
C861        C  0.24255869  0.54151019  0.50831777    -0.17760
C862        C  0.23308141  0.56071364  0.52251934     0.10630
S863        S  0.21111059  0.96945795  0.57625882    -0.32720
S864        S  0.24242432  0.59479660  0.49770416    -0.32730
H865        H  0.24461753  0.58329477  0.46571199     0.28640
H866        H  0.23406063  0.96571407  0.56140079     0.28630
H867        H  0.20035657  0.51777404  0.59426266     0.19230
H868        H  0.25613768  0.54894814  0.48543770     0.19230
C869        C  0.20983053  0.64713660  0.55510448    -0.06600
C870        C  0.21568147  0.67459965  0.57162017    -0.17730
C871        C  0.22474087  0.70200818  0.55265134     0.10600
C872        C  0.23337871  0.70347411  0.51793364    -0.06520
C873        C  0.22679502  0.67549161  0.50221339    -0.17760
C874        C  0.21163172  0.64723058  0.51942386     0.10630
S875        S  0.22042359  0.73247790  0.57148078    -0.32720
S876        S  0.18915151  0.61158314  0.49532635    -0.32730
H877        H  0.19599368  0.62513122  0.46275219     0.28640
H878        H  0.21065435  0.71875173  0.60373617     0.28630
H879        H  0.21151333  0.67402570  0.59870537     0.19230
H880        H  0.23125173  0.67480679  0.47587728     0.19230
C881        C  0.42282517  0.95036035  0.31923866    -0.06600
C882        C  0.42648850  0.94007698  0.35116739    -0.17730
C883        C  0.40380358  0.93032906  0.37632884     0.10600
C884        C  0.37621588  0.92984504  0.36921792    -0.06520
C885        C  0.37252607  0.93990905  0.33732243    -0.17760
C886        C  0.39514429  0.94987188  0.31237812     0.10630
S887        S  0.41222577  0.92039473  0.41741110    -0.32720
S888        S  0.38613102  0.95995037  0.27177987    -0.32730
H889        H  0.39797601  0.94445404  0.25339691     0.28640
H890        H  0.39567674  0.93078426  0.43636245     0.28630
H891        H  0.44763459  0.94070112  0.35703041     0.19230
H892        H  0.35131028  0.93912574  0.33137019     0.19230
C893        C  0.30066788  0.84544007  0.44640185    -0.06600
C894        C  0.29873590  0.84392533  0.48198356    -0.17730
C895        C  0.28630150  0.81560016  0.49895990     0.10600
C896        C  0.27695180  0.78779246  0.48044369    -0.06520
C897        C  0.27807562  0.78916835  0.44467961    -0.17760
C898        C  0.28926919  0.81748887  0.42748888     0.10630
S899        S  0.28168460  0.81654477  0.54419879    -0.32720
S900        S  0.28786891  0.81618122  0.38160191    -0.32730
H901        H  0.28220841  0.84076804  0.37783300     0.28640
H902        H  0.25157221  0.79114063  0.54299483     0.28630
H903        H  0.30669789  0.86507970  0.49679235     0.19230
H904        H  0.27080656  0.76823350  0.42992845     0.19230
C905        C  0.29894820  0.94371461  0.43590838    -0.06600
C906        C  0.31839142  0.97568141  0.44259433    -0.17730
C907        C  0.30786611  0.99290036  0.46009714     0.10600
C908        C  0.27797730  0.97745598  0.47447715    -0.06520
C909        C  0.25832386  0.94591811  0.46582091    -0.17760
C910        C  0.26764367  0.92987239  0.44465912     0.10630
S911        S  0.33432664  0.03431280  0.46398459    -0.32720
S912        S  0.23819595  0.89181456  0.42979352    -0.32730
H913        H  0.25401953  0.89209262  0.40028731     0.28640
H914        H  0.31166010  0.54241438  0.46596940     0.28630
H915        H  0.34226450  0.98728820  0.43522269     0.19230
H916        H  0.23605534  0.93255885  0.47685725     0.19230
C917        C  0.47723836  0.69607489  0.51425652    -0.06600
C918        C  0.47842161  0.69828016  0.55002985    -0.17730
C919        C  0.46202085  0.67172910  0.57034242     0.10600
C920        C  0.44535014  0.64203462  0.55471872    -0.06520
C921        C  0.44471076  0.63980236  0.51918933    -0.17760
C922        C  0.45983980  0.66618741  0.49894178     0.10690
S923        S  0.46298660  0.67740871  0.61577017    -0.32720
S924        S  0.45611872  0.65970224  0.45360942    -0.32730
H925        H  0.44912213  0.68293360  0.44751402     0.28640
H926        H  0.43300845  0.65260717  0.62177321     0.28630
H927        H  0.49261366  0.72070813  0.56226110     0.19230
H928        H  0.43198948  0.61711057  0.50699172     0.19230
C929        C  0.34546016  0.54462843  0.57115314    -0.06600
C930        C  0.33412046  0.51281898  0.56504026    -0.17730
C931        C  0.30717980  0.49463536  0.54612413     0.10600
C932        C  0.29247279  0.50898379  0.53008162    -0.06520
C933        C  0.30321872  0.54041201  0.53806370    -0.17760
C934        C  0.32761673  0.55732362  0.56039215     0.10630
S935        S  0.29378730  0.95358204  0.54243511    -0.32720
S936        S  0.33500777  0.59526088  0.57358558    -0.32730
H937        H  0.35036143  0.59637484  0.60387737     0.28640
H938        H  0.26270552  0.94402648  0.53845830     0.28630
H939        H  0.34686803  0.50221209  0.57380805     0.19230
H940        H  0.29420475  0.55304634  0.52559923     0.19230
C941        C  0.45833105  0.91073427  0.67747929    -0.06600
C942        C  0.47877685  0.91093686  0.65349575    -0.17730
C943        C  0.46873526  0.88869822  0.62741591     0.10600
C944        C  0.43811304  0.86329607  0.62718118    -0.06520
C945        C  0.41749499  0.86356934  0.65088572    -0.17760
C946        C  0.42688834  0.88752767  0.67504280     0.10630
S947        S  0.99528571  0.89652832  0.59338317    -0.32720
S948        S  0.39709446  0.88663408  0.70095158    -0.32730
H949        H  0.41525650  0.90729397  0.72671406     0.28640
H950        H  0.47272484  0.88353040  0.56774589     0.28630
H951        H  0.00258783  0.92961470  0.65407319     0.19230
H952        H  0.39370755  0.84491501  0.65065630     0.19230
C953        C  0.08608748  0.53076089  0.67352218    -0.06600
C954        C  0.10974028  0.52434336  0.67693756    -0.17730
C955        C  0.13473162  0.53697385  0.65439601     0.10600
C956        C  0.13569576  0.55579421  0.62682775    -0.06520
C957        C  0.11131432  0.56132274  0.62304006    -0.17760
C958        C  0.08679794  0.54922106  0.64605470     0.10630
S959        S  0.16641015  0.53126733  0.66349661    -0.32720
S960        S  0.05703804  0.55808199  0.63909155    -0.32730
H961        H  0.03307317  0.52918978  0.65076033     0.28640
H962        H  0.15216162  0.50922089  0.68960390     0.28630
H963        H  0.10937670  0.01068120  0.69847657     0.19230
H964        H  0.11130845  0.57525442  0.60196778     0.19230
C965        C  0.43798859  0.56296088  0.63837467    -0.06600
C966        C  0.43308559  0.53289167  0.63303115    -0.17730
C967        C  0.44778036  0.52138525  0.65315222     0.10600
C968        C  0.46804593  0.54027408  0.67913706    -0.06520
C969        C  0.47380054  0.57060630  0.68385418    -0.17760
C970        C  0.45838147  0.58182242  0.66454312     0.10630
S971        S  0.44038345  0.98272661  0.64406917    -0.32720
S972        S  0.46405744  0.61932559  0.67646256    -0.32730
H973        H  0.43421662  0.61209359  0.66797199     0.28640
H974        H  0.47004770  0.98941117  0.65260040     0.28630
H975        H  0.41804302  0.51840053  0.61266747     0.19230
H976        H  0.48916360  0.58507165  0.70399764     0.19230
C977        C  0.07769491  0.63239660  0.13102564    -0.06600
C978        C  0.07933544  0.60589789  0.12264382    -0.17730
C979        C  0.06650324  0.57954589  0.14371317     0.10600
C980        C  0.05212237  0.57964864  0.17451067    -0.06520
C981        C  0.05026589  0.60612944  0.18250624    -0.17760
C982        C  0.06305800  0.63238652  0.16155695     0.10630
S983        S  0.06796411  0.54623186  0.12882248    -0.32720
S984        S  0.06109760  0.66557655  0.17626360    -0.32730
H985        H  0.08969441  0.68824734  0.16311546     0.28640
H986        H  0.03801209  0.52425569  0.13928876     0.28630
H987        H  0.09005587  0.60541966  0.09898544     0.19230
H988        H  0.03956631  0.60694186  0.20597940     0.19230
C989        C  0.16287258  0.70622820  0.05472227    -0.06600
C990        C  0.19024360  0.71674358  0.07299489    -0.17730
C991        C  0.21791482  0.72591527  0.05601489     0.10600
C992        C  0.21862257  0.72691536  0.01989623    -0.06520
C993        C  0.19118033  0.71690429  0.00208669    -0.17760
C994        C  0.16343167  0.70509265  0.01880990     0.10630
S995        S  0.25049357  0.73403161  0.08188991    -0.32720
S996        S  0.12946947  0.68623929  0.99250775    -0.32730
H997        H  0.11114656  0.66327484  0.01644380     0.28640
H998        H  0.26326802  0.72283962  0.05822345     0.28630
H999        H  0.18985404  0.71690092  0.10058504     0.19230
H1000       H  0.19093782  0.71609103  0.97452275     0.19230
C1001       C  0.03439829  0.72534247  0.01085453    -0.06600
C1002       C  0.03260790  0.72583092  0.04665807    -0.17730
C1003       C  0.04917950  0.71685596  0.06748271     0.10600
C1004       C  0.06665167  0.70544399  0.05227240    -0.06520
C1005       C  0.06706518  0.70348615  0.01666061    -0.17760
C1006       C  0.05182583  0.71374040  0.99596729     0.10630
S1007       S  0.04711334  0.72065469  0.11292016    -0.32720
S1008       S  0.05585359  0.71148252  0.95067152    -0.32730
H1009       H  0.05706712  0.73961222  0.94373013     0.28640
H1010       H  0.07671388  0.72657129  0.12021294     0.28630
H1011       H  0.01773354  0.73259188  0.05856794     0.19230
H1012       H  0.07978705  0.69415446  0.00468554     0.19230
C1013       C  0.21060668  0.97050489  0.01973684    -0.06600
C1014       C  0.21548503  0.97078677  0.05520892    -0.17730
C1015       C  0.19090956  0.95421755  0.07782123     0.10600
C1016       C  0.16075268  0.93785383  0.06483892    -0.06520
C1017       C  0.15591402  0.93841005  0.02982193    -0.17760
C1018       C  0.18009943  0.95368105  0.00723509     0.10630
S1019       S  0.19962434  0.95507788  0.12247527    -0.32720
S1020       S  0.16973329  0.94918497  0.96270201    -0.32730
H1021       H  0.19534071  0.94837335  0.95099375     0.28640
H1022       H  0.17191955  0.92863009  0.13226501     0.28630
H1023       H  0.23851166  0.98418118  0.06542323     0.19230
H1024       H  0.13273518  0.92566214  0.01973052     0.19230
C1025       C  0.03765093  0.78562178  0.01368563    -0.06600
C1026       C  0.02412981  0.78792612  0.04396171    -0.17730
C1027       C  0.03986009  0.81298486  0.06655392     0.10600
C1028       C  0.06874773  0.83855292  0.05711509    -0.06520
C1029       C  0.08237262  0.83576999  0.02702156    -0.17760
C1030       C  0.06818475  0.80892134  0.00687935     0.10630
S1031       S  0.02228242  0.80963958  0.10741776    -0.32720
S1032       S  0.09129602  0.80538769  0.97471491    -0.32730
H1033       H  0.08736090  0.77774270  0.98851643     0.28640
H1034       H  0.05011531  0.82665781  0.12534285     0.28630
H1035       H  0.50127359  0.76953103  0.05065695     0.19230
H1036       H  0.10447976  0.85455435  0.01872739     0.19230
C1037       C  0.06877771  0.92428063  0.12624570    -0.06600
C1038       C  0.04706479  0.90418333  0.15019364    -0.17730
C1039       C  0.03356771  0.91482900  0.17345697     0.10600
C1040       C  0.04220559  0.94659155  0.17350006    -0.06520
C1041       C  0.06290611  0.96642547  0.14880322    -0.17760
C1042       C  0.07530980  0.95543939  0.12445228     0.10630
S1043       S  0.00677316  0.88692797  0.20344893    -0.32720
S1044       S  0.09765529  0.98187283  0.09079780    -0.32730
H1045       H  0.09027560  0.95847672  0.06622350     0.28640
H1046       H  0.01597283  0.90770052  0.23102292     0.28630
H1047       H  0.04148473  0.88018100  0.15186668     0.19230
H1048       H  0.06904996  0.99059748  0.14812659     0.19230
C1049       C  0.14395884  0.56370132  0.86345857    -0.06600
C1050       C  0.11755631  0.56423171  0.87291837    -0.17730
C1051       C  0.09163683  0.55163211  0.85172500     0.10600
C1052       C  0.09210697  0.53859284  0.81983710    -0.06520
C1053       C  0.11847558  0.53788931  0.81063206    -0.17760
C1054       C  0.14435390  0.55056341  0.83169377     0.10630
S1055       S  0.05838824  0.55166025  0.86761948    -0.32720
S1056       S  0.17759789  0.55056077  0.81563738    -0.32730
H1057       H  0.19930060  0.57921318  0.83048968     0.28640
H1058       H  0.03718723  0.52163813  0.85525808     0.28630
H1059       H  0.11686035  0.57389860  0.89742278     0.19230
H1060       H  0.11941119  0.52832110  0.78615350     0.19230
C1061       C  0.21747446  0.64879183  0.94163530    -0.06600
C1062       C  0.22679599  0.67646733  0.92368751    -0.17730
C1063       C  0.23641087  0.70462333  0.94097879     0.10600
C1064       C  0.23883235  0.70550724  0.97699009    -0.06520
C1065       C  0.22994916  0.67781840  0.99458015    -0.17760
C1066       C  0.21802487  0.64951420  0.97762649     0.10630
S1067       S  0.24334792  0.73760734  0.91567954    -0.32720
S1068       S  0.20141233  0.61509649  0.00385443    -0.32730
H1069       H  0.17799878  0.59590919  0.98075905     0.28640
H1070       H  0.23239483  0.75017215  0.93991533     0.28630
H1071       H  0.22576062  0.67593960  0.89610830     0.19230
H1072       H  0.23038844  0.67791150  0.02217805     0.19230
C1073       C  0.21753875  0.55103743  0.93791093    -0.06600
C1074       C  0.21917019  0.55261853  0.97358614    -0.17730
C1075       C  0.22787482  0.53496966  0.99238171     0.10600
C1076       C  0.23302860  0.51303712  0.97571196    -0.06520
C1077       C  0.23243951  0.51193070  0.93983518    -0.17760
C1078       C  0.22519350  0.53103782  0.92077485     0.10630
S1079       S  0.23321911  0.54264190  0.03754271    -0.32720
S1080       S  0.22662188  0.52914650  0.87503833    -0.32730
H1081       H  0.23500968  0.56031222  0.86934566     0.28640
H1082       H  0.25808910  0.53781641  0.04011710     0.28630
H1083       H  0.21382959  0.56804216  0.98719051     0.19230
H1084       H  0.23717750  0.49578371  0.92667087     0.19230
C1085       C  0.42077905  0.95338999  0.17782526    -0.06600
C1086       C  0.39433703  0.92485659  0.18621056    -0.17730
C1087       C  0.36712614  0.91307547  0.16759475     0.10600
C1088       C  0.36632442  0.92913149  0.13847952    -0.06520
C1089       C  0.39277008  0.95740153  0.12965006    -0.17760
C1090       C  0.41990809  0.96954000  0.14868401     0.10630
S1091       S  0.33394122  0.87816473  0.18330994    -0.32720
S1092       S  0.45294460  0.00453226  0.13299951    -0.32730
H1093       H  0.47359855  0.49430486  0.13952916     0.28640
H1094       H  0.31225315  0.88512413  0.17062618     0.28630
H1095       H  0.39438245  0.91193152  0.20827576     0.19230
H1096       H  0.39269642  0.96949639  0.10681646     0.19230
C1097       C  0.28022704  0.78670786  0.02260308    -0.06600
C1098       C  0.25954531  0.79729892  0.02623031    -0.17730
C1099       C  0.26690870  0.82371869  0.04567812     0.10600
C1100       C  0.29716022  0.84273252  0.05844346    -0.06520
C1101       C  0.31767735  0.83197677  0.05519723    -0.17760
C1102       C  0.30911148  0.80367815  0.03920281     0.10630
S1103       S  0.23606988  0.83073188  0.05425027    -0.32720
S1104       S  0.33648591  0.79094040  0.04118000    -0.32730
H1105       H  0.31447023  0.75895149  0.04141268     0.28640
H1106       H  0.24725292  0.84456639  0.08635760     0.28630
H1107       H  0.23752794  0.78527592  0.01351583     0.19230
H1108       H  0.34083848  0.84573950  0.06493809     0.19230
C1109       C  0.27039574  0.97074451  0.01960958    -0.06600
C1110       C  0.29973153  0.98798842  0.03460458    -0.17730
C1111       C  0.31290033  0.97353006  0.05245579     0.10600
C1112       C  0.29494299  0.94127631  0.05933613    -0.06520
C1113       C  0.26426767  0.92480686  0.04808234    -0.17760
C1114       C  0.25248076  0.93837301  0.02659847     0.10630
S1115       S  0.35347510  0.99601894  0.06207897    -0.32720
S1116       S  0.21623392  0.91166523  0.00669923    -0.32730
H1117       H  0.22153523  0.92895586  0.97703206     0.28640
H1118       H  0.35961296  0.02435625  0.04756690     0.28630
H1119       H  0.31345958  0.01277740  0.02977065     0.19230
H1120       H  0.25004028  0.90016434  0.05360135     0.19230
C1121       C  0.46718570  0.91101791  0.82376741    -0.06600
C1122       C  0.48214444  0.91679584  0.85542379    -0.17730
C1123       C  0.47076467  0.89421921  0.88127695     0.10600
C1124       C  0.44431362  0.86458413  0.87504769    -0.06520
C1125       C  0.42975162  0.85892716  0.84328769    -0.17760
C1126       C  0.44075327  0.88145409  0.81785679     0.10630
S1127       S  0.99014741  0.90545999  0.92190197    -0.32720
S1128       S  0.42075730  0.86978972  0.77780325    -0.32730
H1129       H  0.44758263  0.88358028  0.75805655     0.28640
H1130       H  0.46372431  0.88723986  0.94151940     0.28630
H1131       H  0.00225467  0.93943621  0.86047948     0.19230
H1132       H  0.40994564  0.83619768  0.83772680     0.19230
C1133       C  0.35364249  0.78290392  0.93972419    -0.06600
C1134       C  0.34232341  0.80338105  0.94141792    -0.17730
C1135       C  0.31421509  0.79475177  0.95613993     0.10600
C1136       C  0.29794802  0.76614855  0.97371623    -0.06520
C1137       C  0.30820133  0.74489133  0.97086829    -0.17760
C1138       C  0.33461063  0.75211270  0.95225170     0.10630
S1139       S  0.30129281  0.82221797  0.95226008    -0.32720
S1140       S  0.34159212  0.72083891  0.94273932    -0.32730
H1141       H  0.32122813  0.69944852  0.96681211     0.28640
H1142       H  0.26992423  0.80024980  0.95516955     0.28630
H1143       H  0.35567309  0.82702480  0.93221171     0.19230
H1144       H  0.29600162  0.72282113  0.98393990     0.19230
C1145       C  0.45664368  0.78999348  0.95004345    -0.06600
C1146       C  0.48234133  0.79552635  0.93086843    -0.17730
C1147       C  0.50272556  0.78670118  0.94240117     0.10600
C1148       C  0.49503213  0.76699018  0.97110209    -0.06520
C1149       C  0.46803376  0.75904273  0.98875457    -0.17760
C1150       C  0.45062543  0.77261177  0.98066082     0.10630
S1151       S  0.53865825  0.80364946  0.91996259    -0.32720
S1152       S  0.42531584  0.77101747  0.01383296    -0.32730
H1153       H  0.43008496  0.80083815  0.00711999     0.28640
H1154       H  0.54602094  0.78146913  0.92960402     0.28630
H1155       H  0.48759927  0.80788968  0.90696858     0.19230
H1156       H  0.46247338  0.74507916  0.01159270     0.19230
C1157       C  0.44779515  0.64135096  0.95023781    -0.06600
C1158       C  0.46275640  0.66613318  0.92741564    -0.17730
C1159       C  0.48259693  0.69670475  0.93871938     0.10600
C1160       C  0.48714885  0.70301915  0.97418109    -0.06520
C1161       C  0.46970773  0.67836391  0.99689620    -0.17760
C1162       C  0.45096935  0.64766969  0.98551354     0.10630
S1163       S  0.50289814  0.72595347  0.90692561    -0.32720
S1164       S  0.43413244  0.61759481  0.01742548    -0.32730
H1165       H  0.43606381  0.59484555  0.99824729     0.28640
H1166       H  0.48962654  0.70730449  0.87779755     0.28630
H1167       H  0.45944207  0.66114886  0.90037512     0.19230
H1168       H  0.47263349  0.68263629  0.02409487     0.19230
C1169       C  0.28773144  0.50662716  0.96879419    -0.06600
C1170       C  0.30116395  0.53919069  0.96722832    -0.17730
C1171       C  0.32803367  0.55768634  0.94877836     0.10600
C1172       C  0.34506365  0.54442757  0.93627131    -0.06520
C1173       C  0.33110574  0.51180089  0.93679959    -0.17760
C1174       C  0.30216279  0.49296788  0.95103017     0.10630
S1175       S  0.33815112  0.59743092  0.94091602    -0.32720
S1176       S  0.28516511  0.95145691  0.94661091    -0.32730
H1177       H  0.25719716  0.94759579  0.93521046     0.28640
H1178       H  0.35423440  0.60048703  0.91064119     0.28630
H1179       H  0.29113346  0.55064494  0.98076001     0.19230
H1180       H  0.34292689  0.50058766  0.92691671     0.19230
C1181       C  0.46356714  0.53656655  0.82281681    -0.06600
C1182       C  0.44711934  0.51799929  0.85082722    -0.17730
C1183       C  0.43391186  0.52826099  0.87501660     0.10600
C1184       C  0.43665054  0.55771992  0.87117684    -0.06520
C1185       C  0.45320567  0.57639758  0.84347946    -0.17760
C1186       C  0.46617166  0.56609445  0.81914795     0.10630
S1187       S  0.41505483  0.00314907  0.91090902    -0.32720
S1188       S  0.48354939  0.59090791  0.78284434    -0.32730
H1189       H  0.96684498  0.56641538  0.75956075     0.28640
H1190       H  0.42277544  0.52713200  0.93453454     0.28630
H1191       H  0.44510648  0.99548347  0.85441599     0.19230
H1192       H  0.45515957  0.59887826  0.84013592     0.19230
C1193       C  0.92272639  0.06972289  0.89543927     0.02650
C1194       C  0.89102146  0.05307196  0.90177702    -0.13490
C1195       C  0.87814632  0.06363126  0.92643096     0.00160
C1196       C  0.89770325  0.09154382  0.94398048    -0.12020
C1197       C  0.92877269  0.10961245  0.93579724     0.02650
C1198       C  0.94126052  0.09840475  0.91183440    -0.11440
H1199       H  0.87663121  0.03181230  0.88758666     0.08240
H1200       H  0.88888266  0.09958914  0.96404011     0.05770
H1201       H  0.96553919  0.11197560  0.90612897     0.05620
C1202       C  0.93130065  0.33846636  0.89998463     0.02650
C1203       C  0.94981795  0.32903857  0.91602590    -0.13490
C1204       C  0.93698923  0.30214892  0.93664852     0.00160
C1205       C  0.90516760  0.28612153  0.94246109    -0.12020
C1206       C  0.88615797  0.29590096  0.92802386     0.02650
C1207       C  0.89957086  0.32126929  0.90542740    -0.11440
H1208       H  0.97422448  0.34245937  0.91154017     0.08240
H1209       H  0.89531441  0.26624463  0.95874528     0.05770
H1210       H  0.88539883  0.32824821  0.89217223     0.05620
C1211       C  0.84004439  0.41541702  0.11431772     0.02650
C1212       C  0.82771989  0.43317024  0.10229956    -0.13490
C1213       C  0.80786299  0.42293932  0.07399955     0.00160
C1214       C  0.79981230  0.39420437  0.05888208    -0.12020
C1215       C  0.80839826  0.37427653  0.07343644     0.02650
C1216       C  0.82939147  0.38555767  0.10063450    -0.11440
H1217       H  0.83413193  0.45505909  0.11471570     0.08240
H1218       H  0.78650985  0.38717263  0.03555386     0.05770
H1219       H  0.83811091  0.37149082  0.11076640     0.05620
C1220       C  0.67050652  0.07670965  0.88723245     0.02650
C1221       C  0.68245517  0.05829439  0.89852881    -0.13490
C1222       C  0.70792719  0.07095740  0.92052679     0.00160
C1223       C  0.72130732  0.10209225  0.93093270    -0.12020
C1224       C  0.70772557  0.11947621  0.92287542     0.02650
C1225       C  0.68288828  0.10714341  0.90017311    -0.11440
H1226       H  0.67133745  0.03397730  0.89108313     0.08240
H1227       H  0.74082020  0.11198811  0.94812300     0.05770
H1228       H  0.67263568  0.12080920  0.89342558     0.05620
C1229       C  0.58551357  0.41232226  0.10600374     0.02650
C1230       C  0.56936926  0.38230835  0.09120148    -0.13490
C1231       C  0.58505864  0.36858082  0.07671860     0.00160
C1232       C  0.61719719  0.38598321  0.07652235    -0.12020
C1233       C  0.63302041  0.41761254  0.08501137     0.02650
C1234       C  0.61760188  0.43020759  0.10199508    -0.11440
H1235       H  0.54461356  0.37017631  0.09041957     0.08240
H1236       H  0.63008081  0.37642557  0.06526848     0.05770
H1237       H  0.63047787  0.45418229  0.11062432     0.05620
C1238       C  0.76245835  0.48774425  0.99384369     0.00090
C1239       C  0.73664810  0.48991924  0.99608390     0.00090
C1240       C  0.59105102  0.15933685  0.10733744     0.02650
C1241       C  0.57298458  0.17090441  0.09414892    -0.13490
C1242       C  0.58579537  0.19627078  0.07162182     0.00160
C1243       C  0.61665100  0.21003201  0.06261610    -0.12020
C1244       C  0.63393220  0.19693632  0.07278903     0.02650
C1245       C  0.62144986  0.17220052  0.09600941    -0.11440
H1246       H  0.54886108  0.15952749  0.10044011     0.08240
H1247       H  0.62641693  0.22920801  0.04468196     0.05770
H1248       H  0.63490753  0.16216779  0.10415023     0.05620
C1249       C  0.51396375  0.23178951  0.98940020     0.00090
C1250       C  0.51753903  0.26089503  0.98845363     0.00090
C1251       C  0.74542259  0.23289298  0.99854852     0.00090
C1252       C  0.77307770  0.26039435  0.99844999     0.00090
O1253       O  0.49875881  0.04247896  0.77872602    -0.85820
O1254       O  0.54981843  0.03819000  0.79261206    -0.82870
C1255       C  0.56647715  0.02635849  0.79492890     0.97640
O1256       O  0.56257085  0.50493780  0.77463679    -0.82900
O1257       O  0.50752272  0.45378042  0.79388036    -0.85550
C1258       C  0.97903480  0.43605937  0.79780789     1.02170
O1259       O  0.96041103  0.43888030  0.77892288    -0.78310
O1260       O  0.96535396  0.49505537  0.79504194    -0.78500
C1261       C  0.97681623  0.02410673  0.79782083     1.02120
O1262       O  0.50858034  0.03915065  0.70748573    -0.85820
O1263       O  0.56199977  0.03975245  0.72032267    -0.82880
C1264       C  0.56262807  0.01996893  0.70054498     0.97660
O1265       O  0.54459934  0.49112656  0.70489332    -0.82910
O1266       O  0.49210153  0.43683942  0.72336843    -0.85520
C1267       C  0.97111330  0.43488841  0.70429274     1.02130
O1268       O  0.96149939  0.45341539  0.70794216    -0.78340
O1269       O  0.96145663  0.50652871  0.72426361    -0.78480
C1270       C  0.98010728  0.02771870  0.70451473     1.02090
Cr1271     Cr  0.52808506  0.03651811  0.74991198     1.93740
Cr1272     Cr  0.52510005  0.47343155  0.74931600     1.93210
Cr1273     Cr  0.96555226  0.47511222  0.75150185     1.39100
O1274       O  0.50622896  0.49508838  0.75012409    -1.23570
C1275       C  0.92300082  0.07437884  0.61493381     0.02650
C1276       C  0.89144487  0.05569522  0.60740834    -0.13490
C1277       C  0.87783672  0.06509795  0.58265249     0.00160
C1278       C  0.89626481  0.09335923  0.56570763    -0.12020
C1279       C  0.92717390  0.11280457  0.57398129     0.02650
C1280       C  0.94070614  0.10292237  0.59796985    -0.11440
H1281       H  0.87771430  0.03369909  0.62042414     0.08240
H1282       H  0.88672622  0.10015363  0.54513933     0.05770
H1283       H  0.96516448  0.11696986  0.60256583     0.05620
C1284       C  0.85023786  0.41783857  0.39352587     0.02650
C1285       C  0.83682709  0.43574957  0.40162883    -0.13490
C1286       C  0.81230312  0.42455368  0.42478361     0.00160
C1287       C  0.80182081  0.39539888  0.43987854    -0.12020
C1288       C  0.81342897  0.37645601  0.43037955     0.02650
C1289       C  0.83784839  0.38786134  0.40737310    -0.11440
H1290       H  0.84573496  0.45845031  0.39011263     0.08240
H1291       H  0.78438164  0.38720338  0.45939413     0.05770
H1292       H  0.84739765  0.37356172  0.40052173     0.05620
C1293       C  0.66251561  0.07134497  0.60304345     0.02650
C1294       C  0.67477392  0.10280962  0.59378638    -0.13490
C1295       C  0.70120115  0.11793165  0.57373841     0.00160
C1296       C  0.71717878  0.10262846  0.56632889    -0.12020
C1297       C  0.70322056  0.07019152  0.57000855     0.02650
C1298       C  0.67536522  0.05472178  0.58841679    -0.11440
H1299       H  0.66358374  0.11534461  0.60149062     0.08240
H1300       H  0.73984620  0.11627314  0.55578883     0.05770
H1301       H  0.66339258  0.02968161  0.59146348     0.05620
C1302       C  0.58796957  0.41191044  0.38589054     0.02650
C1303       C  0.61763247  0.42923651  0.39981996    -0.13490
C1304       C  0.62628137  0.41840900  0.42858043     0.00160
C1305       C  0.60288504  0.39131105  0.44429766    -0.12020
C1306       C  0.57501538  0.37108069  0.42773741     0.02650
C1307       C  0.56782774  0.38167245  0.39800206    -0.11440
H1308       H  0.63310963  0.45122602  0.38796194     0.08240
H1309       H  0.60609230  0.38534618  0.46967669     0.05770
H1310       H  0.54634078  0.36711502  0.38487961     0.05620
C1311       C  0.50019076  0.25207361  0.49610318     0.00090
C1312       C  0.49858018  0.22381595  0.49328217     0.00090
C1313       C  0.76915318  0.49275821  0.50193308     0.00090
C1314       C  0.74179236  0.49239479  0.50131670     0.00090
C1315       C  0.58845150  0.15926162  0.38775400     0.02650
C1316       C  0.56869791  0.16683318  0.40434683    -0.13490
C1317       C  0.57987257  0.18996634  0.42943372     0.00160
C1318       C  0.61055329  0.20434841  0.43951583    -0.12020
C1319       C  0.63175817  0.19943869  0.42179531     0.02650
C1320       C  0.62016913  0.17739045  0.39464648    -0.11440
H1321       H  0.54437680  0.15410569  0.39865038     0.08240
H1322       H  0.61722922  0.21888315  0.46188451     0.05770
H1323       H  0.63516964  0.17324348  0.37906147     0.05620
C1324       C  0.92673599  0.33669538  0.60253600     0.02650
C1325       C  0.94344619  0.32167073  0.59604353    -0.13490
C1326       C  0.93353878  0.29801510  0.57092998     0.00160
C1327       C  0.90503513  0.28784065  0.55513951    -0.12020
C1328       C  0.88660764  0.29998591  0.56398217     0.02650
C1329       C  0.89822319  0.32544377  0.58635413    -0.11440
H1330       H  0.96394197  0.32848073  0.61071423     0.08240
H1331       H  0.89665792  0.27008716  0.53554431     0.05770
H1332       H  0.88493469  0.33642481  0.59116617     0.05620
C1333       C  0.77039544  0.25856409  0.49829911     0.00090
C1334       C  0.74249359  0.23144998  0.49572061     0.00090
O1335       O  0.55091351  0.48250831  0.21770572    -0.85820
O1336       O  0.55024895  0.03603140  0.20279229    -0.82870
C1337       C  0.53944338  0.05367341  0.19960453     0.97640
O1338       O  0.51854002  0.05071274  0.21929072    -0.82900
O1339       O  0.96616661  0.49501477  0.20366006    -0.85550
C1340       C  0.94743480  0.46607666  0.20153831     1.02170
O1341       O  0.94980670  0.44764160  0.22159257    -0.78310
O1342       O  0.50295047  0.44858262  0.20440404    -0.78500
C1343       C  0.53128959  0.46003114  0.19962055     1.02120
O1344       O  0.55077228  0.49503104  0.28939592    -0.85820
O1345       O  0.55408218  0.05077637  0.27438783    -0.82880
C1346       C  0.53591108  0.05467962  0.29290060     0.97660
O1347       O  0.50726725  0.03710353  0.28981261    -0.82910
O1348       O  0.95194867  0.48421830  0.27439090    -0.85520
C1349       C  0.94836626  0.46281311  0.29428045     1.02130
O1350       O  0.96584969  0.45183439  0.29221255    -0.78340
O1351       O  0.51649153  0.44722079  0.27457770    -0.78480
C1352       C  0.53895921  0.46596645  0.29290843     1.02090
Cr1353     Cr  0.54805029  0.01434070  0.24619709     1.93740
Cr1354     Cr  0.98768783  0.01491851  0.24682061     1.93210
Cr1355     Cr  0.98565822  0.45238625  0.24819031     1.39100
O1356       O  0.50723962  0.49391220  0.24712456    -1.23570
C1357       C  0.85552298  0.28607392  0.54863803    -0.06600
C1358       C  0.85247774  0.28099327  0.51335609    -0.17730
C1359       C  0.82401492  0.26792479  0.49732140     0.10600
C1360       C  0.79760606  0.26101558  0.51619856    -0.06520
C1361       C  0.80040219  0.26453577  0.55175618    -0.17760
C1362       C  0.82877443  0.27640257  0.56819600     0.10630
S1363       S  0.82284914  0.26047943  0.45246107    -0.32720
S1364       S  0.82910047  0.27863159  0.61406377    -0.32730
H1365       H  0.85255436  0.27191295  0.61867576     0.28640
H1366       H  0.80821527  0.22810896  0.45779513     0.28630
H1367       H  0.87253756  0.28749414  0.49793547     0.19230
H1368       H  0.78091784  0.25975397  0.56693571     0.19230
C1369       C  0.71859001  0.22869449  0.47110057    -0.06600
C1370       C  0.70314905  0.24460253  0.47796826    -0.17730
C1371       C  0.67828979  0.23982188  0.45778658     0.10600
C1372       C  0.66449257  0.21414811  0.43450916    -0.06520
C1373       C  0.68203765  0.20068926  0.42565767    -0.17760
C1374       C  0.71007360  0.20987835  0.44132531     0.10630
S1375       S  0.66914735  0.27025984  0.45949663    -0.32720
S1376       S  0.73478802  0.19996082  0.41857127    -0.32730
H1377       H  0.76041700  0.21719904  0.43930429     0.28640
H1378       H  0.65720061  0.26499617  0.42618248     0.28630
H1379       H  0.71138021  0.26188748  0.49815603     0.19230
H1380       H  0.67470387  0.18309092  0.40610253     0.19230
C1381       C  0.57550877  0.13218107  0.36360907    -0.06600
C1382       C  0.55282903  0.12844064  0.34029570    -0.17730
C1383       C  0.53912930  0.10317558  0.31764900     0.10600
C1384       C  0.54868263  0.08112811  0.31726741    -0.06520
C1385       C  0.57145053  0.08480099  0.34026685    -0.17760
C1386       C  0.58413998  0.10928629  0.36410395     0.10630
S1387       S  0.01013195  0.10104657  0.28941884    -0.32720
S1388       S  0.60933566  0.10836417  0.39585851    -0.32730
H1389       H  0.59870493  0.11903867  0.42268444     0.28640
H1390       H  0.01908295  0.09035294  0.26129958     0.28630
H1391       H  0.54582614  0.14557220  0.33941320     0.19230
H1392       H  0.57851988  0.06769813  0.34057142     0.19230
C1393       C  0.98237037  0.25859975  0.52197733    -0.06600
C1394       C  0.99895008  0.28642741  0.54070729    -0.17730
C1395       C  0.98434903  0.30025445  0.55671250     0.10600
C1396       C  0.95192168  0.28354012  0.55971131    -0.06520
C1397       C  0.93593599  0.25272704  0.54669201    -0.17760
C1398       C  0.95009167  0.24176662  0.52485989     0.10630
S1399       S  0.00870834  0.34088333  0.56629264    -0.32720
S1400       S  0.92504381  0.20966099  0.49753829    -0.32730
H1401       H  0.94260392  0.22357630  0.46825488     0.28640
H1402       H  0.99122617  0.34899920  0.54568964     0.28630
H1403       H  0.02373450  0.29975806  0.53884216     0.19230
H1404       H  0.91140560  0.23820458  0.55001583     0.19230
C1405       C  0.52191819  0.21943884  0.47498526    -0.06600
C1406       C  0.53729580  0.20842096  0.49523248    -0.17730
C1407       C  0.55500439  0.19741953  0.48108246     0.10600
C1408       C  0.55941986  0.19906388  0.44563266    -0.06520
C1409       C  0.54541924  0.21131205  0.42518775    -0.17760
C1410       C  0.52636647  0.22112499  0.43920612     0.10630
S1411       S  0.56973335  0.17991423  0.50964225    -0.32720
S1412       S  0.50802077  0.23384028  0.40932934    -0.32730
H1413       H  0.48494989  0.23150943  0.43063074     0.28640
H1414       H  0.56810849  0.15780650  0.48613796     0.28630
H1415       H  0.53430771  0.20701165  0.52262552     0.19230
H1416       H  0.54907805  0.21283937  0.39789621     0.19230
C1417       C  0.55483585  0.33890852  0.44182667    -0.06600
C1418       C  0.56905482  0.32356471  0.45603141    -0.17730
C1419       C  0.55261383  0.29582207  0.47434707     0.10600
C1420       C  0.52023299  0.27976703  0.47413241    -0.06520
C1421       C  0.50576895  0.29380442  0.45752901    -0.17760
C1422       C  0.52248277  0.32367091  0.44339825     0.10630
S1423       S  0.57496152  0.28535286  0.50077310    -0.32720
S1424       S  0.50101045  0.34199024  0.43222155    -0.32730
H1425       H  0.52311321  0.37160832  0.44471220     0.28640
H1426       H  0.55306962  0.27123896  0.52670692     0.28630
H1427       H  0.59367133  0.33438139  0.45501609     0.19230
H1428       H  0.98100839  0.28253001  0.45843250     0.19230
C1429       C  0.65842571  0.43580356  0.44366854    -0.06600
C1430       C  0.68013554  0.46633703  0.43287878    -0.17730
C1431       C  0.70925307  0.48351547  0.44790863     0.10600
C1432       C  0.71577384  0.47236003  0.47786821    -0.06520
C1433       C  0.69431433  0.44232802  0.48883863    -0.17760
C1434       C  0.66846572  0.42281692  0.46929395     0.10630
S1435       S  0.73699383  0.01855844  0.42645722    -0.32720
S1436       S  0.65467890  0.38178694  0.47385018    -0.32730
H1437       H  0.64716933  0.37504702  0.43912883     0.28640
H1438       H  0.76263927  0.01801028  0.43866268     0.28630
H1439       H  0.67547669  0.47725313  0.41204658     0.19230
H1440       H  0.69945975  0.43286013  0.51094189     0.19230
C1441       C  0.55215169  0.45309568  0.31715608    -0.06600
C1442       C  0.55429522  0.42730131  0.30665399    -0.17730
C1443       C  0.56689994  0.41414326  0.32779398     0.10600
C1444       C  0.57728754  0.42653128  0.36071152    -0.06520
C1445       C  0.57551421  0.45253411  0.37115350    -0.17760
C1446       C  0.56283944  0.46568245  0.35001969     0.10630
S1447       S  0.56979651  0.38214452  0.31091830    -0.32720
S1448       S  0.55923286  0.49712302  0.36731199    -0.32730
H1449       H  0.53061344  0.48748808  0.35214864     0.28640
H1450       H  0.59582290  0.38838098  0.32991579     0.28630
H1451       H  0.54664964  0.41762737  0.28139116     0.19230
H1452       H  0.58301122  0.46194745  0.39657792     0.19230
C1453       C  0.71672387  0.05228118  0.55400284    -0.06600
C1454       C  0.71165574  0.02457991  0.56978728    -0.17730
C1455       C  0.72059366  0.00497153  0.55449027     0.10600
C1456       C  0.73594242  0.01339562  0.52295456    -0.06520
C1457       C  0.74259090  0.04151181  0.50832280    -0.17760
C1458       C  0.73312718  0.06072540  0.52252662     0.10630
S1459       S  0.71110510  0.46946228  0.57626016    -0.32720
S1460       S  0.74251757  0.09482945  0.49772737    -0.32730
H1461       H  0.74468380  0.08332057  0.46572822     0.28640
H1462       H  0.73405383  0.46572088  0.56139503     0.28630
H1463       H  0.70037220  0.01777713  0.59425731     0.19230
H1464       H  0.75617516  0.04894834  0.48544622     0.19230
C1465       C  0.70985104  0.14714315  0.55507839    -0.06600
C1466       C  0.71566323  0.17459411  0.57159198    -0.17730
C1467       C  0.72472717  0.20200531  0.55262641     0.10600
C1468       C  0.73340471  0.20348806  0.51792171    -0.06520
C1469       C  0.72688078  0.17552331  0.50220822    -0.17760
C1470       C  0.71170316  0.14725427  0.51940126     0.10630
S1471       S  0.72039459  0.23246858  0.57144670    -0.32720
S1472       S  0.68925587  0.11161882  0.49527517    -0.32730
H1473       H  0.69613645  0.12518577  0.46271041     0.28640
H1474       H  0.71058445  0.21872411  0.60368799     0.28630
H1475       H  0.71146471  0.17400879  0.59867091     0.19230
H1476       H  0.73139724  0.17485807  0.47588566     0.19230
C1477       C  0.92281429  0.45037055  0.31923605    -0.06600
C1478       C  0.92647752  0.44008822  0.35116542    -0.17730
C1479       C  0.90379289  0.43034191  0.37632677     0.10600
C1480       C  0.87620571  0.42985865  0.36921507    -0.06520
C1481       C  0.87251634  0.43992250  0.33731933    -0.17760
C1482       C  0.89513429  0.44988354  0.31237495     0.10630
S1483       S  0.91221436  0.42040783  0.41740963    -0.32720
S1484       S  0.88612166  0.45996098  0.27177569    -0.32730
H1485       H  0.89796521  0.44446267  0.25339369     0.28640
H1486       H  0.89566452  0.43079689  0.43636019     0.28630
H1487       H  0.94762315  0.44071149  0.35702875     0.19230
H1488       H  0.85130088  0.43913975  0.33136672     0.19230
C1489       C  0.80065893  0.34545018  0.44639314    -0.06600
C1490       C  0.79873333  0.34393511  0.48197494    -0.17730
C1491       C  0.78630442  0.31561009  0.49895020     0.10600
C1492       C  0.77695292  0.28780291  0.48043184    -0.06520
C1493       C  0.77806869  0.28917880  0.44466756    -0.17760
C1494       C  0.78925804  0.31749956  0.42747856     0.10630
S1495       S  0.78169796  0.31655468  0.54419123    -0.32720
S1496       S  0.78785078  0.31619343  0.38159174    -0.32730
H1497       H  0.78219177  0.34078174  0.37782843     0.28640
H1498       H  0.75159054  0.29114128  0.54299682     0.28630
H1499       H  0.80669700  0.36508924  0.49678474     0.19230
H1500       H  0.77079672  0.26824411  0.42991475     0.19230
C1501       C  0.79893584  0.44372356  0.43590688    -0.06600
C1502       C  0.81837816  0.47569042  0.44259322    -0.17730
C1503       C  0.80785158  0.49290872  0.46009505     0.10600
C1504       C  0.77796221  0.47746363  0.47447371    -0.06520
C1505       C  0.75830983  0.44592554  0.46581743    -0.17760
C1506       C  0.76763103  0.42988035  0.44465673     0.10630
S1507       S  0.83431140  0.53432128  0.46398310    -0.32720
S1508       S  0.73818450  0.39182200  0.42979106    -0.32730
H1509       H  0.75400838  0.39210111  0.40028467     0.28640
H1510       H  0.81167574  0.04240640  0.46597195     0.28630
H1511       H  0.84225147  0.48729788  0.43522243     0.19230
H1512       H  0.73604104  0.43256567  0.47685300     0.19230
C1513       C  0.97723719  0.19607341  0.51426250    -0.06600
C1514       C  0.97842202  0.19827836  0.55003589    -0.17730
C1515       C  0.96202707  0.17172619  0.57034860     0.10600
C1516       C  0.94536103  0.14203128  0.55472487    -0.06520
C1517       C  0.94471969  0.13979972  0.51919534    -0.17760
C1518       C  0.95984208  0.16618546  0.49894786     0.10690
S1519       S  0.96299406  0.17740484  0.61577657    -0.32720
S1520       S  0.95611775  0.15970044  0.45361548    -0.32730
H1521       H  0.94911905  0.18293060  0.44752248     0.28640
H1522       H  0.93301795  0.15259971  0.62178066     0.28630
H1523       H  0.99261140  0.22070690  0.56226705     0.19230
H1524       H  0.93200153  0.11710780  0.50699746     0.19230
C1525       C  0.84547747  0.04461906  0.57115917    -0.06600
C1526       C  0.83413761  0.01280970  0.56504482    -0.17730
C1527       C  0.80719669  0.99462684  0.54612810     0.10600
C1528       C  0.79249049  0.00897620  0.53008559    -0.06520
C1529       C  0.80323811  0.04040463  0.53806814    -0.17760
C1530       C  0.82763422  0.05731450  0.56039890     0.10630
S1531       S  0.79377243  0.45359086  0.54243161    -0.32720
S1532       S  0.83502387  0.09525071  0.57359509    -0.32730
H1533       H  0.85037688  0.09636328  0.60388689     0.28640
H1534       H  0.76269046  0.44403298  0.53845159     0.28630
H1535       H  0.84688488  0.00220242  0.57381235     0.19230
H1536       H  0.79422807  0.05304138  0.52560224     0.19230
C1537       C  0.95830852  0.41072129  0.67749984    -0.06600
C1538       C  0.97875840  0.41092732  0.65351932    -0.17730
C1539       C  0.96872239  0.38868888  0.62743942     0.10600
C1540       C  0.93810165  0.36328390  0.62720114    -0.06520
C1541       C  0.91748020  0.36355189  0.65090451    -0.17760
C1542       C  0.92686745  0.38750960  0.67506122     0.10630
S1543       S  0.49527778  0.39652231  0.59341118    -0.32720
S1544       S  0.89706681  0.38660705  0.70096532    -0.32730
H1545       H  0.91522277  0.40729716  0.72670922     0.28640
H1546       H  0.97272040  0.38352773  0.56776999     0.28630
H1547       H  0.50256818  0.42960795  0.65409880     0.19230
H1548       H  0.89369398  0.34489458  0.65067285     0.19230
C1549       C  0.58611840  0.03077207  0.67351618    -0.06600
C1550       C  0.60977901  0.02436674  0.67693605    -0.17730
C1551       C  0.63476676  0.03699596  0.65438977     0.10600
C1552       C  0.63571945  0.05580250  0.62681255    -0.06520
C1553       C  0.61133121  0.06132015  0.62302173    -0.17760
C1554       C  0.58681787  0.04921930  0.64604061     0.10630
S1555       S  0.66645486  0.03130565  0.66349403    -0.32720
S1556       S  0.55704782  0.05806473  0.63907246    -0.32730
H1557       H  0.53309056  0.02917480  0.65075635     0.28640
H1558       H  0.65221782  0.00927115  0.68961442     0.28630
H1559       H  0.60933006  0.51064823  0.69847231     0.19230
H1560       H  0.61131751  0.07524221  0.60194349     0.19230
C1561       C  0.93801006  0.06296036  0.63838093    -0.06600
C1562       C  0.93310923  0.03289197  0.63303782    -0.17730
C1563       C  0.94780541  0.02138721  0.65315906     0.10600
C1564       C  0.96807013  0.04027656  0.67914420    -0.06520
C1565       C  0.97382263  0.07060806  0.68386106    -0.17760
C1566       C  0.95840228  0.08182273  0.66454957     0.10630
S1567       S  0.94035530  0.48272327  0.64406291    -0.32720
S1568       S  0.96407558  0.11932485  0.67646888    -0.32730
H1569       H  0.93423407  0.11209063  0.66797833     0.28640
H1570       H  0.97001635  0.48940237  0.65260160     0.28630
H1571       H  0.91806733  0.01840013  0.61267409     0.19230
H1572       H  0.98918439  0.08507342  0.70400546     0.19230
C1573       C  0.57768935  0.13239649  0.13102724    -0.06600
C1574       C  0.57933177  0.10589907  0.12264418    -0.17730
C1575       C  0.56650251  0.07954720  0.14371355     0.10600
C1576       C  0.55212266  0.07964868  0.17451232    -0.06520
C1577       C  0.55026308  0.10612763  0.18250846    -0.17760
C1578       C  0.56305234  0.13238468  0.16155911     0.10630
S1579       S  0.56796610  0.04623506  0.12882156    -0.32720
S1580       S  0.56108890  0.16557272  0.17626672    -0.32730
H1581       H  0.58968572  0.18824530  0.16312028     0.28640
H1582       H  0.53801586  0.02425675  0.13929109     0.28630
H1583       H  0.59005216  0.10542207  0.09898526     0.19230
H1584       H  0.53956373  0.10693886  0.20598230     0.19230
C1585       C  0.66286821  0.20622862  0.05472863    -0.06600
C1586       C  0.69024171  0.21675270  0.07299878    -0.17730
C1587       C  0.71791167  0.22592365  0.05601658     0.10600
C1588       C  0.71861492  0.22691329  0.01989760    -0.06520
C1589       C  0.69116962  0.21689221  0.00209047    -0.17760
C1590       C  0.66342283  0.20508289  0.01881680     0.10630
S1591       S  0.75049472  0.23405119  0.08188976    -0.32720
S1592       S  0.62945743  0.18622121  0.99252013    -0.32730
H1593       H  0.61113690  0.16326412  0.01646389     0.28640
H1594       H  0.76326491  0.22284942  0.05822948     0.28630
H1595       H  0.68985516  0.21691761  0.10058889     0.19230
H1596       H  0.69092313  0.21606970  0.97452699     0.19230
C1597       C  0.53440663  0.22535204  0.01085206    -0.06600
C1598       C  0.53261386  0.22584148  0.04665538    -0.17730
C1599       C  0.54918202  0.21686450  0.06748287     0.10600
C1600       C  0.56665295  0.20544983  0.05227552    -0.06520
C1601       C  0.56706966  0.20349239  0.01666391    -0.17760
C1602       C  0.55183414  0.21374880  0.99596787     0.10630
S1603       S  0.54711193  0.22066254  0.11291987    -0.32720
S1604       S  0.55586368  0.21148876  0.95067243    -0.32730
H1605       H  0.55706622  0.23961208  0.94372452     0.28640
H1606       H  0.57671012  0.22657451  0.12021710     0.28630
H1607       H  0.51773874  0.23260262  0.05856285     0.19230
H1608       H  0.57979087  0.19415900  0.00469113     0.19230
C1609       C  0.71057943  0.47049480  0.01975031    -0.06600
C1610       C  0.71546428  0.47077542  0.05522086    -0.17730
C1611       C  0.69089325  0.45420150  0.07783746     0.10600
C1612       C  0.66073436  0.43783363  0.06486112    -0.06520
C1613       C  0.65588942  0.43838937  0.02984559    -0.17760
C1614       C  0.68007037  0.45366527  0.00725448     0.10630
S1615       S  0.69961582  0.45506222  0.12248913    -0.32720
S1616       S  0.66969631  0.44916897  0.96272373    -0.32730
H1617       H  0.69530566  0.44836557  0.95100682     0.28640
H1618       H  0.67191384  0.42861277  0.13228250     0.28630
H1619       H  0.73849232  0.48417346  0.06543065     0.19230
H1620       H  0.63270908  0.42563844  0.01975864     0.19230
C1621       C  0.53764619  0.28562442  0.01367028    -0.06600
C1622       C  0.52411681  0.28792223  0.04394298    -0.17730
C1623       C  0.53984183  0.31297448  0.06654410     0.10600
C1624       C  0.56873336  0.33854343  0.05711809    -0.06520
C1625       C  0.58236455  0.33576923  0.02702511    -0.17760
C1626       C  0.56818087  0.30892662  0.00687316     0.10630
S1627       S  0.52225276  0.30961895  0.10740283    -0.32720
S1628       S  0.59129701  0.30540470  0.97470589    -0.32730
H1629       H  0.58735530  0.27775154  0.98849059     0.28640
H1630       H  0.55008063  0.32662917  0.12533871     0.28630
H1631       H  0.00125879  0.26952551  0.05062984     0.19230
H1632       H  0.60447376  0.35455597  0.01873934     0.19230
C1633       C  0.56876047  0.42426518  0.12625789    -0.06600
C1634       C  0.54704325  0.40416946  0.15020319    -0.17730
C1635       C  0.53354546  0.41481789  0.17346223     0.10600
C1636       C  0.54218679  0.44658143  0.17350309    -0.06520
C1637       C  0.56289102  0.46641354  0.14880791    -0.17760
C1638       C  0.57529574  0.45542486  0.12446139     0.10630
S1639       S  0.50674558  0.38691902  0.20345204    -0.32720
S1640       S  0.59764738  0.48185656  0.09080841    -0.32730
H1641       H  0.59026931  0.45845947  0.06623586     0.28640
H1642       H  0.51594497  0.40769179  0.23102575     0.28630
H1643       H  0.54146051  0.38016634  0.15187778     0.19230
H1644       H  0.56903746  0.49058632  0.14812938     0.19230
C1645       C  0.64398530  0.06369380  0.86346017    -0.06600
C1646       C  0.61757956  0.06421767  0.87292122    -0.17730
C1647       C  0.59166070  0.05161787  0.85172652     0.10600
C1648       C  0.59213400  0.03858444  0.81983579    -0.06520
C1649       C  0.61850528  0.03788636  0.81062969    -0.17760
C1650       C  0.64438336  0.05056126  0.83169261     0.10630
S1651       S  0.55840886  0.05163881  0.86762254    -0.32720
S1652       S  0.67763129  0.05056807  0.81563360    -0.32730
H1653       H  0.69932992  0.07922099  0.83048832     0.28640
H1654       H  0.53721038  0.02161938  0.85525233     0.28630
H1655       H  0.61688093  0.07388046  0.89742731     0.19230
H1656       H  0.61944334  0.02832273  0.78614908     0.19230
C1657       C  0.71748821  0.14878941  0.94164154    -0.06600
C1658       C  0.72679982  0.17646217  0.92369290    -0.17730
C1659       C  0.73640580  0.20461671  0.94098270     0.10600
C1660       C  0.73882725  0.20550329  0.97699410    -0.06520
C1661       C  0.72995314  0.17781730  0.99458577    -0.17760
C1662       C  0.71804017  0.14951339  0.97763297     0.10630
S1663       S  0.74333006  0.23759459  0.91568093    -0.32720
S1664       S  0.70144474  0.11509713  0.00386223    -0.32730
H1665       H  0.67803258  0.09590115  0.98076971     0.28640
H1666       H  0.73235197  0.25014106  0.93990884     0.28630
H1667       H  0.72576345  0.17593311  0.89611370     0.19230
H1668       H  0.73039311  0.17791222  0.02218369     0.19230
C1669       C  0.71758653  0.05105132  0.93790416    -0.06600
C1670       C  0.71922949  0.05263858  0.97357897    -0.17730
C1671       C  0.72793410  0.03498834  0.99237184     0.10600
C1672       C  0.73307526  0.01304763  0.97570127    -0.06520
C1673       C  0.73248177  0.01193947  0.93982470    -0.17760
C1674       C  0.72523563  0.03104784  0.92076613     0.10630
S1675       S  0.73329273  0.04266727  0.03753098    -0.32720
S1676       S  0.72665571  0.02915238  0.87502929    -0.32730
H1677       H  0.73504313  0.06031788  0.86933564     0.28640
H1678       H  0.75815315  0.03782600  0.04009906     0.28630
H1679       H  0.71389558  0.06806610  0.98718578     0.19230
H1680       H  0.73721370  0.99578851  0.92665951     0.19230
C1681       C  0.92076988  0.45339931  0.17781754    -0.06600
C1682       C  0.89432487  0.42486740  0.18620015    -0.17730
C1683       C  0.86711692  0.41308791  0.16757839     0.10600
C1684       C  0.86632089  0.42914437  0.13846048    -0.06520
C1685       C  0.89276917  0.45741355  0.12963466    -0.17760
C1686       C  0.91990437  0.46955007  0.14867400     0.10630
S1687       S  0.83392807  0.37817847  0.18328931    -0.32720
S1688       S  0.95294479  0.50454080  0.13299318    -0.32730
H1689       H  0.97360164  0.99429966  0.13953122     0.28640
H1690       H  0.81224357  0.38514049  0.17059976     0.28630
H1691       H  0.89436584  0.41194191  0.20826712     0.19230
H1692       H  0.89269986  0.46950920  0.10679977     0.19230
C1693       C  0.78022330  0.28671423  0.02259078    -0.06600
C1694       C  0.75954075  0.29730445  0.02621736    -0.17730
C1695       C  0.76690612  0.32372918  0.04565810     0.10600
C1696       C  0.79715913  0.34274695  0.05841843    -0.06520
C1697       C  0.81767797  0.33199400  0.05516961    -0.17760
C1698       C  0.80911159  0.30369248  0.03918204     0.10630
S1699       S  0.73606751  0.33074263  0.05423013    -0.32720
S1700       S  0.83648849  0.29095857  0.04116451    -0.32730
H1701       H  0.81447184  0.25897035  0.04143225     0.28640
H1702       H  0.74725255  0.34458073  0.08633559     0.28630
H1703       H  0.73752033  0.28527559  0.01350972     0.19230
H1704       H  0.84084037  0.34576027  0.06490617     0.19230
C1705       C  0.77038098  0.47075461  0.01959903    -0.06600
C1706       C  0.79972049  0.48799969  0.03458558    -0.17730
C1707       C  0.81289387  0.47354287  0.05243160     0.10600
C1708       C  0.79493917  0.44128933  0.05931387    -0.06520
C1709       C  0.76426256  0.42481788  0.04806494    -0.17760
C1710       C  0.75247057  0.43838235  0.02658611     0.10630
S1711       S  0.85346980  0.49603355  0.06204812    -0.32720
S1712       S  0.71622368  0.41167127  0.00668925    -0.32730
H1713       H  0.72152155  0.42896269  0.97702346     0.28640
H1714       H  0.85960448  0.52436914  0.04753421     0.28630
H1715       H  0.81344632  0.51278885  0.02975190     0.19230
H1716       H  0.75003749  0.40017515  0.05358414     0.19230
C1717       C  0.96716142  0.41103476  0.82379462    -0.06600
C1718       C  0.98213678  0.41680482  0.85544014    -0.17730
C1719       C  0.97076429  0.39422577  0.88129183     0.10600
C1720       C  0.94430390  0.36459487  0.87507031    -0.06520
C1721       C  0.92972543  0.35894775  0.84332163    -0.17760
C1722       C  0.94071734  0.38147757  0.81789535     0.10630
S1723       S  0.49017022  0.40545894  0.92190417    -0.32720
S1724       S  0.92069163  0.36982213  0.77785978    -0.32730
H1725       H  0.94750443  0.38357904  0.75809219     0.28640
H1726       H  0.96375702  0.38724062  0.94153667     0.28630
H1727       H  0.50225597  0.43944038  0.86048853     0.19230
H1728       H  0.90991313  0.33622212  0.83776332     0.19230
C1729       C  0.85363074  0.28288078  0.93972733    -0.06600
C1730       C  0.84229444  0.30334585  0.94138758    -0.17730
C1731       C  0.81418744  0.29471908  0.95611083     0.10600
C1732       C  0.79793628  0.26613333  0.97371866    -0.06520
C1733       C  0.80820122  0.24488432  0.97090493    -0.17760
C1734       C  0.83461171  0.25209972  0.95229467     0.10630
S1735       S  0.80124754  0.32216864  0.95219315    -0.32720
S1736       S  0.84159445  0.22081822  0.94283643    -0.32730
H1737       H  0.82136959  0.19952763  0.96707351     0.28640
H1738       H  0.76988374  0.30020349  0.95515693     0.28630
H1739       H  0.85562973  0.32698266  0.93215994     0.19230
H1740       H  0.79600561  0.22282282  0.98399492     0.19230
C1741       C  0.95664204  0.28998346  0.95002617    -0.06600
C1742       C  0.98234463  0.29552717  0.93085339    -0.17730
C1743       C  0.00272915  0.28670051  0.94238219     0.10600
C1744       C  0.99503422  0.26698347  0.97107795    -0.06520
C1745       C  0.96802971  0.25902201  0.98872331    -0.17760
C1746       C  0.95061867  0.27258836  0.98063465     0.10630
S1747       S  0.03866135  0.30364803  0.91994245    -0.32720
S1748       S  0.92529909  0.27097243  0.01380675    -0.32730
H1749       H  0.93006460  0.30079447  0.00711189     0.28640
H1750       H  0.04602344  0.28146627  0.92958186     0.28630
H1751       H  0.98760521  0.30789893  0.90695876     0.19230
H1752       H  0.96246713  0.24505068  0.01155574     0.19230
C1753       C  0.94782877  0.14133714  0.95025529    -0.06600
C1754       C  0.96277603  0.16611597  0.92742612    -0.17730
C1755       C  0.98260335  0.19669336  0.93872211     0.10600
C1756       C  0.98715612  0.20301580  0.97418210    -0.06520
C1757       C  0.96972397  0.17836330  0.99690338    -0.17760
C1758       C  0.95100059  0.14766435  0.98552927     0.10630
S1759       S  0.00288845  0.22594070  0.90692210    -0.32720
S1760       S  0.93418274  0.11759629  0.01745040    -0.32730
H1761       H  0.93613462  0.09485447  0.99828139     0.28640
H1762       H  0.98960513  0.20728791  0.87779907     0.28630
H1763       H  0.95946241  0.16112504  0.90038685     0.19230
H1764       H  0.97264883  0.18264237  0.02410101     0.19230
C1765       C  0.78776566  0.00660559  0.96879606    -0.06600
C1766       C  0.80120531  0.03916935  0.96721787    -0.17730
C1767       C  0.82808480  0.05765590  0.94878075     0.10600
C1768       C  0.84511811  0.04438962  0.93630611    -0.06520
C1769       C  0.83115492  0.01176283  0.93684590    -0.17760
C1770       C  0.80220193  0.99293738  0.95105777     0.10630
S1771       S  0.83821038  0.09739904  0.94089106    -0.32720
S1772       S  0.78513168  0.45148929  0.94657120    -0.32730
H1773       H  0.75716114  0.44762690  0.93517840     0.28640
H1774       H  0.85430128  0.10044002  0.91062660     0.28630
H1775       H  0.79117473  0.05063228  0.98073146     0.19230
H1776       H  0.84297820  0.00054411  0.92698498     0.19230
C1777       C  0.96360623  0.03654991  0.82283535    -0.06600
C1778       C  0.94727083  0.01803225  0.85092071    -0.17730
C1779       C  0.93407640  0.02829725  0.87512303     0.10600
C1780       C  0.93671686  0.05770586  0.87122020    -0.06520
C1781       C  0.95316137  0.07633520  0.84344824    -0.17760
C1782       C  0.96610905  0.06602545  0.81910175     0.10630
S1783       S  0.91475337  0.50304099  0.91071207    -0.32720
S1784       S  0.98331964  0.09074624  0.78269596    -0.32730
H1785       H  0.46664429  0.06616233  0.75950357     0.28640
H1786       H  0.92304699  0.02728378  0.93466305     0.28630
H1787       H  0.94487545  0.49541063  0.85427702     0.19230
H1788       H  0.95503621  0.09877548  0.84005918     0.19230
C1789       C  0.92266328  0.56974722  0.89539240     0.02650
C1790       C  0.89095497  0.55311774  0.90171418    -0.13490
C1791       C  0.87808824  0.56367378  0.92638263     0.00160
C1792       C  0.89765320  0.59157698  0.94394348    -0.12020
C1793       C  0.92872560  0.60963234  0.93576920     0.02650
C1794       C  0.94120718  0.59841760  0.91180707    -0.11440
H1795       H  0.87655540  0.53187048  0.88750845     0.08240
H1796       H  0.88883880  0.59962275  0.96400915     0.05770
H1797       H  0.96548970  0.61197524  0.90611798     0.05620
C1798       C  0.93130630  0.83846288  0.89996906     0.02650
C1799       C  0.94982181  0.82903896  0.91602233    -0.13490
C1800       C  0.93699202  0.80215757  0.93665840     0.00160
C1801       C  0.90517066  0.78613614  0.94247326    -0.12020
C1802       C  0.88616554  0.79591530  0.92802227     0.02650
C1803       C  0.89957757  0.82127423  0.90541497    -0.11440
H1804       H  0.97422859  0.84245776  0.91153662     0.08240
H1805       H  0.89531126  0.76626346  0.95876694     0.05770
H1806       H  0.88540543  0.82825374  0.89215947     0.05620
C1807       C  0.84004517  0.91540226  0.11434141     0.02650
C1808       C  0.82771925  0.93315450  0.10232491    -0.13490
C1809       C  0.80786373  0.92292444  0.07402400     0.00160
C1810       C  0.79981403  0.89419009  0.05890594    -0.12020
C1811       C  0.80839963  0.87426202  0.07346083     0.02650
C1812       C  0.82939293  0.88554324  0.10065832    -0.11440
H1813       H  0.83413060  0.95504281  0.11474186     0.08240
H1814       H  0.78651304  0.88715923  0.03557671     0.05770
H1815       H  0.83811337  0.87147710  0.11078953     0.05620
C1816       C  0.67047902  0.57671305  0.88723072     0.02650
C1817       C  0.68241836  0.55829099  0.89853131    -0.13490
C1818       C  0.70788892  0.57094891  0.92053018     0.00160
C1819       C  0.72127750  0.60208513  0.93093279    -0.12020
C1820       C  0.70770537  0.61947714  0.92287004     0.02650
C1821       C  0.68286891  0.60714925  0.90016699    -0.11440
H1822       H  0.67129486  0.53397289  0.89108800     0.08240
H1823       H  0.74078869  0.61197592  0.94812540     0.05770
H1824       H  0.67262288  0.62082044  0.89341619     0.05620
C1825       C  0.58552983  0.91234001  0.10598551     0.02650
C1826       C  0.56938567  0.88232418  0.09118764    -0.13490
C1827       C  0.58507494  0.86859707  0.07670347     0.00160
C1828       C  0.61721324  0.88600339  0.07649724    -0.12020
C1829       C  0.63303535  0.91763313  0.08498425     0.02650
C1830       C  0.61761734  0.93022774  0.10197000    -0.11440
H1831       H  0.54462971  0.87018916  0.09041201     0.08240
H1832       H  0.63009716  0.87644650  0.06524253     0.05770
H1833       H  0.63049318  0.95420286  0.11059782     0.05620
C1834       C  0.76248464  0.98773379  0.99384186     0.00090
C1835       C  0.73668119  0.98992167  0.99607405     0.00090
C1836       C  0.59105556  0.65933533  0.10733362     0.02650
C1837       C  0.57298786  0.67090130  0.09414514    -0.13490
C1838       C  0.58579653  0.69626614  0.07161618     0.00160
C1839       C  0.61665183  0.71002755  0.06260833    -0.12020
C1840       C  0.63393466  0.69693325  0.07278112     0.02650
C1841       C  0.62145384  0.67219876  0.09600353    -0.11440
H1842       H  0.54886475  0.65952435  0.10043825     0.08240
H1843       H  0.62641649  0.72920343  0.04467410     0.05770
H1844       H  0.63491231  0.66216711  0.10414493     0.05620
C1845       C  0.51395832  0.73178737  0.98940612     0.00090
C1846       C  0.51753487  0.76089407  0.98847162     0.00090
C1847       C  0.74543109  0.73289577  0.99854735     0.00090
C1848       C  0.77308592  0.76039790  0.99845073     0.00090
O1849       O  0.49873247  0.54248479  0.77872209    -0.85820
O1850       O  0.54978889  0.53819392  0.79261462    -0.82870
C1851       C  0.56644921  0.52636454  0.79493217     0.97640
O1852       O  0.56259796  0.00493199  0.77463211    -0.82900
O1853       O  0.50754800  0.95376921  0.79386177    -0.85550
C1854       C  0.97906004  0.93604537  0.79778512     1.02170
O1855       O  0.96043695  0.93886915  0.77890265    -0.78310
O1856       O  0.96539063  0.99504502  0.79504885    -0.78500
C1857       C  0.97678270  0.52411795  0.79781134     1.02120
O1858       O  0.50855371  0.53914946  0.70748475    -0.85820
O1859       O  0.56197003  0.53974701  0.72032525    -0.82880
C1860       C  0.56259681  0.51996069  0.70055060     0.97660
O1861       O  0.54463158  0.99113433  0.70488387    -0.82910
O1862       O  0.49213115  0.93684700  0.72334389    -0.85520
C1863       C  0.97114073  0.93489905  0.70427382     1.02130
O1864       O  0.96152590  0.95342442  0.70793249    -0.78340
O1865       O  0.96148555  0.00653524  0.72427452    -0.78480
C1866       C  0.98008073  0.52771517  0.70450853     1.02090
Cr1867     Cr  0.52805689  0.53651866  0.74991265     1.93740
Cr1868     Cr  0.52512899  0.97343092  0.74930245     1.93210
Cr1869     Cr  0.96558163  0.97511126  0.75149892     1.39100
O1870       O  0.50625827  0.99508753  0.75011803    -1.23570
C1871       C  0.92298160  0.57438167  0.61492782     0.02650
C1872       C  0.89142538  0.55570143  0.60740332    -0.13490
C1873       C  0.87781913  0.56510639  0.58264746     0.00160
C1874       C  0.89624936  0.59336720  0.56570249    -0.12020
C1875       C  0.92715923  0.61280911  0.57397545     0.02650
C1876       C  0.94068937  0.60292422  0.59796341    -0.11440
H1877       H  0.87769317  0.53370582  0.62041953     0.08240
H1878       H  0.88671225  0.60016336  0.54513428     0.05770
H1879       H  0.96514803  0.61696894  0.60255872     0.05620
C1880       C  0.85024865  0.91782618  0.39352992     0.02650
C1881       C  0.83683824  0.93573790  0.40163126    -0.13490
C1882       C  0.81231446  0.92454353  0.42478605     0.00160
C1883       C  0.80183159  0.89538932  0.43988256    -0.12020
C1884       C  0.81343969  0.87644571  0.43038634     0.02650
C1885       C  0.83785930  0.88784978  0.40737988    -0.11440
H1886       H  0.84574627  0.95843815  0.39011376     0.08240
H1887       H  0.78439201  0.88719498  0.45939756     0.05770
H1888       H  0.84740849  0.87354975  0.40053023     0.05620
C1889       C  0.66249606  0.57133880  0.60306420     0.02650
C1890       C  0.67476104  0.60280691  0.59381706    -0.13490
C1891       C  0.70118671  0.61792836  0.57376666     0.00160
C1892       C  0.71715669  0.60262041  0.56634209    -0.12020
C1893       C  0.70319312  0.57018251  0.57001703     0.02650
C1894       C  0.67534029  0.55471380  0.58842913    -0.11440
H1895       H  0.66357543  0.61534476  0.60152785     0.08240
H1896       H  0.73982004  0.61626047  0.55578908     0.05770
H1897       H  0.66336521  0.52967282  0.59146978     0.05620
C1898       C  0.58798563  0.91191678  0.38589526     0.02650
C1899       C  0.61764837  0.92924113  0.39982539    -0.13490
C1900       C  0.62629565  0.91841215  0.42858599     0.00160
C1901       C  0.60289808  0.89131440  0.44430240    -0.12020
C1902       C  0.57502827  0.87108568  0.42774136     0.02650
C1903       C  0.56784223  0.88167900  0.39800613    -0.11440
H1904       H  0.63312701  0.95123010  0.38796724     0.08240
H1905       H  0.60610473  0.88534831  0.46968111     0.05770
H1906       H  0.54635547  0.86712272  0.38488286     0.05620
C1907       C  0.50019550  0.75207515  0.49609762     0.00090
C1908       C  0.49858334  0.72381674  0.49327667     0.00090
C1909       C  0.76916977  0.99275119  0.50193719     0.00090
C1910       C  0.74180941  0.99238908  0.50132126     0.00090
C1911       C  0.58845677  0.65926336  0.38775033     0.02650
C1912       C  0.56870275  0.66683450  0.40434267    -0.13490
C1913       C  0.57987658  0.68996738  0.42942925     0.00160
C1914       C  0.61055740  0.70435094  0.43951059    -0.12020
C1915       C  0.63176411  0.69944399  0.42178933     0.02650
C1916       C  0.62017466  0.67739236  0.39464325    -0.11440
H1917       H  0.54438162  0.65410656  0.39864621     0.08240
H1918       H  0.61723117  0.71888436  0.46187983     0.05770
H1919       H  0.63517417  0.67324275  0.37906015     0.05620
C1920       C  0.92674412  0.83670359  0.60252110     0.02650
C1921       C  0.94345338  0.82167753  0.59603163    -0.13490
C1922       C  0.93354409  0.79801814  0.57092251     0.00160
C1923       C  0.90503845  0.78784041  0.55513523    -0.12020
C1924       C  0.88661126  0.79998639  0.56397653     0.02650
C1925       C  0.89822962  0.82544908  0.58634226    -0.11440
H1926       H  0.96394995  0.82848947  0.61070154     0.08240
H1927       H  0.89665915  0.77008354  0.53554386     0.05770
H1928       H  0.88494179  0.83643114  0.59115244     0.05620
C1929       C  0.77038787  0.75855245  0.49831392     0.00090
C1930       C  0.74248149  0.73144172  0.49573421     0.00090
O1931       O  0.55092976  0.98251609  0.21770502    -0.85820
O1932       O  0.55024081  0.53602761  0.20279055    -0.82870
C1933       C  0.53943902  0.55367288  0.19960229     0.97640
O1934       O  0.51853617  0.55071509  0.21928756    -0.82900
O1935       O  0.96617534  0.99500873  0.20366338    -0.85550
C1936       C  0.94744586  0.96607015  0.20154265     1.02170
O1937       O  0.94982093  0.94763688  0.22159641    -0.78310
O1938       O  0.50296750  0.94858543  0.20440559    -0.78500
C1939       C  0.53130693  0.96003785  0.19962010     1.02120
O1940       O  0.55078826  0.99503647  0.28939634    -0.85820
O1941       O  0.55407503  0.55077432  0.27438512    -0.82880
C1942       C  0.53590591  0.55468049  0.29289790     0.97660
O1943       O  0.50726166  0.53710725  0.28980979    -0.82910
O1944       O  0.95195788  0.98421047  0.27439415    -0.85520
C1945       C  0.94837792  0.96280603  0.29428344     1.02130
O1946       O  0.96586444  0.95183086  0.29221549    -0.78340
O1947       O  0.51651061  0.94722496  0.27457864    -0.78480
C1948       C  0.53897763  0.96597215  0.29290907     1.02090
Cr1949     Cr  0.54803834  0.51433627  0.24619585     1.93740
Cr1950     Cr  0.98768053  0.51492315  0.24681753     1.93210
Cr1951     Cr  0.98567430  0.95238601  0.24819265     1.39100
O1952       O  0.50725147  0.99391208  0.24712701    -1.23570
C1953       C  0.85552338  0.78606881  0.54863874    -0.06600
C1954       C  0.85247020  0.78097457  0.51335910    -0.17730
C1955       C  0.82400409  0.76790174  0.49733052     0.10600
C1956       C  0.79759869  0.76100047  0.51621113    -0.06520
C1957       C  0.80040424  0.76453574  0.55176711    -0.17760
C1958       C  0.82877923  0.77640608  0.56820124     0.10630
S1959       S  0.82283252  0.76044770  0.45247183    -0.32720
S1960       S  0.82911397  0.77865127  0.61406828    -0.32730
H1961       H  0.85256604  0.77193023  0.61868233     0.28640
H1962       H  0.80823647  0.72808113  0.45781523     0.28630
H1963       H  0.87252671  0.78747003  0.49793473     0.19230
H1964       H  0.78092644  0.75976529  0.56695044     0.19230
C1965       C  0.71858691  0.72869586  0.47110718    -0.06600
C1966       C  0.70313936  0.74459545  0.47798245    -0.17730
C1967       C  0.67828676  0.73982233  0.45779419     0.10600
C1968       C  0.66450059  0.71416041  0.43450095    -0.06520
C1969       C  0.68205867  0.70071900  0.42563520    -0.17760
C1970       C  0.71008897  0.70990197  0.44131526     0.10630
S1971       S  0.66914435  0.77026018  0.45951299    -0.32720
S1972       S  0.73481636  0.69999602  0.41856817    -0.32730
H1973       H  0.76041402  0.71716289  0.43936492     0.28640
H1974       H  0.65720323  0.76500559  0.42619666     0.28630
H1975       H  0.71136099  0.76186911  0.49818153     0.19230
H1976       H  0.67473862  0.68313769  0.40606275     0.19230
C1977       C  0.57551319  0.63218350  0.36360441    -0.06600
C1978       C  0.55283406  0.62844538  0.34029132    -0.17730
C1979       C  0.53913112  0.60317982  0.31764563     0.10600
C1980       C  0.54868060  0.58112938  0.31726439    -0.06520
C1981       C  0.57144851  0.58480031  0.34026292    -0.17760
C1982       C  0.58414122  0.60928637  0.36409918     0.10630
S1983       S  0.01013458  0.60105391  0.28941642    -0.32720
S1984       S  0.60933689  0.60836255  0.39585250    -0.32730
H1985       H  0.59870855  0.61903889  0.42267903     0.28640
H1986       H  0.01908281  0.59035790  0.26129683     0.28630
H1987       H  0.54583376  0.64557897  0.33940869     0.19230
H1988       H  0.57851532  0.56769547  0.34056741     0.19230
C1989       C  0.98237509  0.75860180  0.52197117    -0.06600
C1990       C  0.99895512  0.78642881  0.54070194    -0.17730
C1991       C  0.98435448  0.80025648  0.55670652     0.10600
C1992       C  0.95192701  0.78354265  0.55970521    -0.06520
C1993       C  0.93594127  0.75272922  0.54668686    -0.17760
C1994       C  0.95009639  0.74176922  0.52485352     0.10630
S1995       S  0.00871487  0.84088542  0.56628493    -0.32720
S1996       S  0.92504788  0.70966544  0.49753016    -0.32730
H1997       H  0.94260944  0.72358087  0.46824767     0.28640
H1998       H  0.99123572  0.84900102  0.54567624     0.28630
H1999       H  0.02373960  0.79975880  0.53883744     0.19230
H2000       H  0.91141113  0.73820612  0.55001187     0.19230
C2001       C  0.52192046  0.71943793  0.47498032    -0.06600
C2002       C  0.53729623  0.70841797  0.49522753    -0.17730
C2003       C  0.55500568  0.69741743  0.48107761     0.10600
C2004       C  0.55942298  0.69906385  0.44562806    -0.06520
C2005       C  0.54542340  0.71131317  0.42518326    -0.17760
C2006       C  0.52637036  0.72112584  0.43920143     0.10630
S2007       S  0.56973415  0.67991143  0.50963704    -0.32720
S2008       S  0.50802649  0.73384319  0.40932459    -0.32730
H2009       H  0.48495531  0.73151256  0.43062531     0.28640
H2010       H  0.56811173  0.65780565  0.48613159     0.28630
H2011       H  0.53430674  0.70700715  0.52262039     0.19230
H2012       H  0.54908350  0.71284191  0.39789192     0.19230
C2013       C  0.55484695  0.83891309  0.44182885    -0.06600
C2014       C  0.56906390  0.82356710  0.45603316    -0.17730
C2015       C  0.55262072  0.79582296  0.47434584     0.10600
C2016       C  0.52023993  0.77976907  0.47412850    -0.06520
C2017       C  0.50577805  0.79380885  0.45752545    -0.17760
C2018       C  0.52249382  0.82367653  0.44339797     0.10630
S2019       S  0.57496553  0.78535003  0.50077186    -0.32720
S2020       S  0.50102363  0.84199848  0.43222261    -0.32730
H2021       H  0.52312703  0.87161534  0.44471551     0.28640
H2022       H  0.55307231  0.77123607  0.52670441     0.28630
H2023       H  0.59368035  0.83438289  0.45501970     0.19230
H2024       H  0.98101751  0.78253536  0.45842716     0.19230
C2025       C  0.65844001  0.93580460  0.44367432    -0.06600
C2026       C  0.68015029  0.96633884  0.43288728    -0.17730
C2027       C  0.70926860  0.98351476  0.44791589     0.10600
C2028       C  0.71579017  0.97235614  0.47787245    -0.06520
C2029       C  0.69432978  0.94232371  0.48884098    -0.17760
C2030       C  0.66847973  0.92281511  0.46929684     0.10630
S2031       S  0.73697817  0.51855794  0.42644779    -0.32720
S2032       S  0.65468927  0.88178419  0.47385073    -0.32730
H2033       H  0.64717865  0.87504609  0.43912936     0.28640
H2034       H  0.76262449  0.51801588  0.43866104     0.28630
H2035       H  0.67549106  0.97725767  0.41205823     0.19230
H2036       H  0.69947479  0.93285377  0.51094271     0.19230
C2037       C  0.55217149  0.95310307  0.31715713    -0.06600
C2038       C  0.55431546  0.92730873  0.30665598    -0.17730
C2039       C  0.56691925  0.91415057  0.32779715     0.10600
C2040       C  0.57730568  0.92653856  0.36071492    -0.06520
C2041       C  0.57553236  0.95254165  0.37115588    -0.17760
C2042       C  0.56285827  0.96568998  0.35002092     0.10630
S2043       S  0.56981553  0.88215120  0.31092292    -0.32720
S2044       S  0.55925064  0.99713023  0.36731218    -0.32730
H2045       H  0.53063088  0.98749397  0.35214896     0.28640
H2046       H  0.59584101  0.88838710  0.32992192     0.28630
H2047       H  0.54667041  0.91763447  0.28139318     0.19230
H2048       H  0.58302843  0.96195493  0.39658049     0.19230
C2049       C  0.71669072  0.55227136  0.55400283    -0.06600
C2050       C  0.71163497  0.52457598  0.56978968    -0.17730
C2051       C  0.72057760  0.50497234  0.55449039     0.10600
C2052       C  0.73592222  0.51339823  0.52295188    -0.06520
C2053       C  0.74255869  0.54151019  0.50831777    -0.17760
C2054       C  0.73308141  0.56071364  0.52251934     0.10630
S2055       S  0.71111059  0.96945795  0.57625882    -0.32720
S2056       S  0.74242432  0.59479660  0.49770416    -0.32730
H2057       H  0.74461753  0.58329477  0.46571200     0.28640
H2058       H  0.73406063  0.96571407  0.56140079     0.28630
H2059       H  0.70035657  0.51777404  0.59426266     0.19230
H2060       H  0.75613768  0.54894814  0.48543770     0.19230
C2061       C  0.70983053  0.64713660  0.55510448    -0.06600
C2062       C  0.71568147  0.67459965  0.57162017    -0.17730
C2063       C  0.72474087  0.70200818  0.55265134     0.10600
C2064       C  0.73337871  0.70347411  0.51793364    -0.06520
C2065       C  0.72679502  0.67549161  0.50221339    -0.17760
C2066       C  0.71163172  0.64723058  0.51942386     0.10630
S2067       S  0.72042359  0.73247790  0.57148078    -0.32720
S2068       S  0.68915151  0.61158314  0.49532635    -0.32730
H2069       H  0.69599368  0.62513122  0.46275219     0.28640
H2070       H  0.71065434  0.71875173  0.60373617     0.28630
H2071       H  0.71151333  0.67402570  0.59870537     0.19230
H2072       H  0.73125173  0.67480679  0.47587728     0.19230
C2073       C  0.92282517  0.95036035  0.31923866    -0.06600
C2074       C  0.92648849  0.94007698  0.35116739    -0.17730
C2075       C  0.90380358  0.93032906  0.37632884     0.10600
C2076       C  0.87621588  0.92984504  0.36921793    -0.06520
C2077       C  0.87252607  0.93990904  0.33732243    -0.17760
C2078       C  0.89514429  0.94987188  0.31237812     0.10630
S2079       S  0.91222577  0.92039473  0.41741110    -0.32720
S2080       S  0.88613102  0.95995037  0.27177987    -0.32730
H2081       H  0.89797601  0.94445404  0.25339691     0.28640
H2082       H  0.89567674  0.93078426  0.43636245     0.28630
H2083       H  0.94763459  0.94070112  0.35703041     0.19230
H2084       H  0.85131028  0.93912574  0.33137019     0.19230
C2085       C  0.80066788  0.84544007  0.44640185    -0.06600
C2086       C  0.79873590  0.84392533  0.48198356    -0.17730
C2087       C  0.78630150  0.81560016  0.49895990     0.10600
C2088       C  0.77695180  0.78779246  0.48044369    -0.06520
C2089       C  0.77807562  0.78916835  0.44467961    -0.17760
C2090       C  0.78926919  0.81748887  0.42748888     0.10630
S2091       S  0.78168460  0.81654477  0.54419879    -0.32720
S2092       S  0.78786891  0.81618122  0.38160191    -0.32730
H2093       H  0.78220841  0.84076804  0.37783300     0.28640
H2094       H  0.75157221  0.79114063  0.54299483     0.28630
H2095       H  0.80669789  0.86507970  0.49679235     0.19230
H2096       H  0.77080656  0.76823350  0.42992845     0.19230
C2097       C  0.79894820  0.94371461  0.43590838    -0.06600
C2098       C  0.81839142  0.97568141  0.44259433    -0.17730
C2099       C  0.80786611  0.99290036  0.46009714     0.10600
C2100       C  0.77797730  0.97745598  0.47447715    -0.06520
C2101       C  0.75832386  0.94591811  0.46582091    -0.17760
C2102       C  0.76764367  0.92987239  0.44465912     0.10630
S2103       S  0.83432664  0.03431280  0.46398459    -0.32720
S2104       S  0.73819595  0.89181456  0.42979352    -0.32730
H2105       H  0.75401953  0.89209262  0.40028731     0.28640
H2106       H  0.81166010  0.54241438  0.46596940     0.28630
H2107       H  0.84226450  0.98728820  0.43522269     0.19230
H2108       H  0.73605534  0.93255885  0.47685725     0.19230
C2109       C  0.97723836  0.69607489  0.51425652    -0.06600
C2110       C  0.97842161  0.69828016  0.55002985    -0.17730
C2111       C  0.96202085  0.67172910  0.57034242     0.10600
C2112       C  0.94535014  0.64203462  0.55471872    -0.06520
C2113       C  0.94471076  0.63980236  0.51918933    -0.17760
C2114       C  0.95983980  0.66618741  0.49894178     0.10690
S2115       S  0.96298660  0.67740871  0.61577017    -0.32720
S2116       S  0.95611872  0.65970224  0.45360942    -0.32730
H2117       H  0.94912213  0.68293360  0.44751402     0.28640
H2118       H  0.93300845  0.65260717  0.62177321     0.28630
H2119       H  0.99261366  0.72070813  0.56226110     0.19230
H2120       H  0.93198948  0.61711057  0.50699172     0.19230
C2121       C  0.84546017  0.54462843  0.57115314    -0.06600
C2122       C  0.83412046  0.51281898  0.56504026    -0.17730
C2123       C  0.80717980  0.49463536  0.54612413     0.10600
C2124       C  0.79247279  0.50898379  0.53008162    -0.06520
C2125       C  0.80321872  0.54041201  0.53806371    -0.17760
C2126       C  0.82761673  0.55732362  0.56039215     0.10630
S2127       S  0.79378730  0.95358204  0.54243511    -0.32720
S2128       S  0.83500777  0.59526088  0.57358558    -0.32730
H2129       H  0.85036143  0.59637484  0.60387737     0.28640
H2130       H  0.76270552  0.94402648  0.53845830     0.28630
H2131       H  0.84686803  0.50221209  0.57380805     0.19230
H2132       H  0.79420475  0.55304634  0.52559923     0.19230
C2133       C  0.95833105  0.91073427  0.67747929    -0.06600
C2134       C  0.97877685  0.91093686  0.65349575    -0.17730
C2135       C  0.96873526  0.88869822  0.62741591     0.10600
C2136       C  0.93811304  0.86329607  0.62718118    -0.06520
C2137       C  0.91749500  0.86356934  0.65088572    -0.17760
C2138       C  0.92688834  0.88752767  0.67504280     0.10630
S2139       S  0.49528571  0.89652832  0.59338317    -0.32720
S2140       S  0.89709446  0.88663408  0.70095158    -0.32730
H2141       H  0.91525650  0.90729397  0.72671406     0.28640
H2142       H  0.97272484  0.88353040  0.56774589     0.28630
H2143       H  0.50258783  0.92961470  0.65407319     0.19230
H2144       H  0.89370755  0.84491501  0.65065630     0.19230
C2145       C  0.58608748  0.53076089  0.67352218    -0.06600
C2146       C  0.60974028  0.52434336  0.67693756    -0.17730
C2147       C  0.63473162  0.53697385  0.65439601     0.10600
C2148       C  0.63569575  0.55579421  0.62682775    -0.06520
C2149       C  0.61131432  0.56132273  0.62304006    -0.17760
C2150       C  0.58679794  0.54922105  0.64605469     0.10630
S2151       S  0.66641015  0.53126733  0.66349661    -0.32720
S2152       S  0.55703803  0.55808199  0.63909155    -0.32730
H2153       H  0.53307317  0.52918977  0.65076033     0.28640
H2154       H  0.65216162  0.50922089  0.68960390     0.28630
H2155       H  0.60937670  0.01068119  0.69847657     0.19230
H2156       H  0.61130845  0.57525441  0.60196778     0.19230
C2157       C  0.93798859  0.56296088  0.63837467    -0.06600
C2158       C  0.93308559  0.53289167  0.63303115    -0.17730
C2159       C  0.94778036  0.52138525  0.65315223     0.10600
C2160       C  0.96804593  0.54027408  0.67913706    -0.06520
C2161       C  0.97380054  0.57060630  0.68385418    -0.17760
C2162       C  0.95838147  0.58182242  0.66454312     0.10630
S2163       S  0.94038345  0.98272661  0.64406917    -0.32720
S2164       S  0.96405744  0.61932559  0.67646256    -0.32730
H2165       H  0.93421662  0.61209359  0.66797199     0.28640
H2166       H  0.97004770  0.98941117  0.65260040     0.28630
H2167       H  0.91804302  0.51840053  0.61266747     0.19230
H2168       H  0.98916360  0.58507165  0.70399764     0.19230
C2169       C  0.57769491  0.63239660  0.13102564    -0.06600
C2170       C  0.57933544  0.60589789  0.12264382    -0.17730
C2171       C  0.56650324  0.57954589  0.14371317     0.10600
C2172       C  0.55212237  0.57964864  0.17451067    -0.06520
C2173       C  0.55026589  0.60612944  0.18250624    -0.17760
C2174       C  0.56305800  0.63238652  0.16155695     0.10630
S2175       S  0.56796411  0.54623186  0.12882248    -0.32720
S2176       S  0.56109760  0.66557655  0.17626360    -0.32730
H2177       H  0.58969441  0.68824734  0.16311546     0.28640
H2178       H  0.53801209  0.52425569  0.13928876     0.28630
H2179       H  0.59005587  0.60541966  0.09898544     0.19230
H2180       H  0.53956631  0.60694186  0.20597940     0.19230
C2181       C  0.66287258  0.70622820  0.05472227    -0.06600
C2182       C  0.69024360  0.71674358  0.07299489    -0.17730
C2183       C  0.71791482  0.72591527  0.05601489     0.10600
C2184       C  0.71862257  0.72691536  0.01989623    -0.06520
C2185       C  0.69118033  0.71690429  0.00208669    -0.17760
C2186       C  0.66343167  0.70509265  0.01880990     0.10630
S2187       S  0.75049357  0.73403161  0.08188991    -0.32720
S2188       S  0.62946947  0.68623929  0.99250775    -0.32730
H2189       H  0.61114656  0.66327484  0.01644380     0.28640
H2190       H  0.76326802  0.72283962  0.05822345     0.28630
H2191       H  0.68985404  0.71690092  0.10058504     0.19230
H2192       H  0.69093782  0.71609103  0.97452275     0.19230
C2193       C  0.53439829  0.72534247  0.01085453    -0.06600
C2194       C  0.53260790  0.72583092  0.04665807    -0.17730
C2195       C  0.54917950  0.71685596  0.06748271     0.10600
C2196       C  0.56665167  0.70544399  0.05227240    -0.06520
C2197       C  0.56706518  0.70348615  0.01666061    -0.17760
C2198       C  0.55182583  0.71374040  0.99596729     0.10630
S2199       S  0.54711334  0.72065470  0.11292016    -0.32720
S2200       S  0.55585359  0.71148252  0.95067152    -0.32730
H2201       H  0.55706712  0.73961222  0.94373013     0.28640
H2202       H  0.57671388  0.72657129  0.12021294     0.28630
H2203       H  0.51773354  0.73259188  0.05856794     0.19230
H2204       H  0.57978705  0.69415446  0.00468554     0.19230
C2205       C  0.71060668  0.97050489  0.01973684    -0.06600
C2206       C  0.71548503  0.97078677  0.05520892    -0.17730
C2207       C  0.69090956  0.95421755  0.07782123     0.10600
C2208       C  0.66075268  0.93785383  0.06483892    -0.06520
C2209       C  0.65591402  0.93841005  0.02982193    -0.17760
C2210       C  0.68009943  0.95368105  0.00723509     0.10630
S2211       S  0.69962434  0.95507788  0.12247527    -0.32720
S2212       S  0.66973329  0.94918497  0.96270201    -0.32730
H2213       H  0.69534071  0.94837335  0.95099375     0.28640
H2214       H  0.67191955  0.92863009  0.13226501     0.28630
H2215       H  0.73851166  0.98418118  0.06542323     0.19230
H2216       H  0.63273518  0.92566214  0.01973052     0.19230
C2217       C  0.53765093  0.78562178  0.01368563    -0.06600
C2218       C  0.52412981  0.78792612  0.04396171    -0.17730
C2219       C  0.53986009  0.81298486  0.06655392     0.10600
C2220       C  0.56874773  0.83855292  0.05711509    -0.06520
C2221       C  0.58237262  0.83576999  0.02702156    -0.17760
C2222       C  0.56818475  0.80892135  0.00687935     0.10630
S2223       S  0.52228242  0.80963958  0.10741776    -0.32720
S2224       S  0.59129602  0.80538769  0.97471491    -0.32730
H2225       H  0.58736090  0.77774270  0.98851643     0.28640
H2226       H  0.55011531  0.82665781  0.12534285     0.28630
H2227       H  0.00127359  0.76953103  0.05065695     0.19230
H2228       H  0.60447976  0.85455435  0.01872739     0.19230
C2229       C  0.56877771  0.92428063  0.12624570    -0.06600
C2230       C  0.54706479  0.90418333  0.15019364    -0.17730
C2231       C  0.53356771  0.91482900  0.17345697     0.10600
C2232       C  0.54220559  0.94659155  0.17350006    -0.06520
C2233       C  0.56290611  0.96642547  0.14880322    -0.17760
C2234       C  0.57530981  0.95543939  0.12445228     0.10630
S2235       S  0.50677316  0.88692797  0.20344893    -0.32720
S2236       S  0.59765529  0.98187283  0.09079780    -0.32730
H2237       H  0.59027560  0.95847672  0.06622350     0.28640
H2238       H  0.51597283  0.90770052  0.23102292     0.28630
H2239       H  0.54148473  0.88018100  0.15186668     0.19230
H2240       H  0.56904997  0.99059749  0.14812659     0.19230
C2241       C  0.64395884  0.56370132  0.86345857    -0.06600
C2242       C  0.61755631  0.56423171  0.87291837    -0.17730
C2243       C  0.59163683  0.55163211  0.85172500     0.10600
C2244       C  0.59210697  0.53859284  0.81983710    -0.06520
C2245       C  0.61847558  0.53788931  0.81063206    -0.17760
C2246       C  0.64435390  0.55056341  0.83169376     0.10630
S2247       S  0.55838824  0.55166025  0.86761948    -0.32720
S2248       S  0.67759789  0.55056077  0.81563738    -0.32730
H2249       H  0.69930060  0.57921318  0.83048968     0.28640
H2250       H  0.53718723  0.52163812  0.85525808     0.28630
H2251       H  0.61686035  0.57389860  0.89742278     0.19230
H2252       H  0.61941119  0.52832110  0.78615350     0.19230
C2253       C  0.71747446  0.64879183  0.94163530    -0.06600
C2254       C  0.72679599  0.67646733  0.92368751    -0.17730
C2255       C  0.73641087  0.70462333  0.94097879     0.10600
C2256       C  0.73883235  0.70550724  0.97699009    -0.06520
C2257       C  0.72994916  0.67781840  0.99458015    -0.17760
C2258       C  0.71802487  0.64951420  0.97762649     0.10630
S2259       S  0.74334792  0.73760734  0.91567954    -0.32720
S2260       S  0.70141233  0.61509649  0.00385443    -0.32730
H2261       H  0.67799877  0.59590919  0.98075905     0.28640
H2262       H  0.73239483  0.75017215  0.93991533     0.28630
H2263       H  0.72576061  0.67593960  0.89610830     0.19230
H2264       H  0.73038844  0.67791150  0.02217805     0.19230
C2265       C  0.71753875  0.55103743  0.93791093    -0.06600
C2266       C  0.71917019  0.55261853  0.97358614    -0.17730
C2267       C  0.72787482  0.53496966  0.99238171     0.10600
C2268       C  0.73302860  0.51303712  0.97571196    -0.06520
C2269       C  0.73243951  0.51193070  0.93983518    -0.17760
C2270       C  0.72519350  0.53103782  0.92077485     0.10630
S2271       S  0.73321911  0.54264190  0.03754271    -0.32720
S2272       S  0.72662188  0.52914650  0.87503833    -0.32730
H2273       H  0.73500968  0.56031222  0.86934566     0.28640
H2274       H  0.75808910  0.53781641  0.04011710     0.28630
H2275       H  0.71382959  0.56804216  0.98719051     0.19230
H2276       H  0.73717750  0.49578371  0.92667087     0.19230
C2277       C  0.92077905  0.95338999  0.17782526    -0.06600
C2278       C  0.89433703  0.92485658  0.18621056    -0.17730
C2279       C  0.86712614  0.91307547  0.16759475     0.10600
C2280       C  0.86632441  0.92913149  0.13847952    -0.06520
C2281       C  0.89277008  0.95740153  0.12965006    -0.17760
C2282       C  0.91990809  0.96954000  0.14868401     0.10630
S2283       S  0.83394122  0.87816473  0.18330994    -0.32720
S2284       S  0.95294460  0.00453226  0.13299951    -0.32730
H2285       H  0.97359855  0.49430486  0.13952916     0.28640
H2286       H  0.81225315  0.88512413  0.17062618     0.28630
H2287       H  0.89438245  0.91193152  0.20827576     0.19230
H2288       H  0.89269642  0.96949639  0.10681646     0.19230
C2289       C  0.78022704  0.78670786  0.02260308    -0.06600
C2290       C  0.75954531  0.79729892  0.02623031    -0.17730
C2291       C  0.76690870  0.82371869  0.04567812     0.10600
C2292       C  0.79716022  0.84273252  0.05844346    -0.06520
C2293       C  0.81767735  0.83197677  0.05519723    -0.17760
C2294       C  0.80911148  0.80367815  0.03920281     0.10630
S2295       S  0.73606988  0.83073188  0.05425027    -0.32720
S2296       S  0.83648590  0.79094040  0.04118000    -0.32730
H2297       H  0.81447023  0.75895149  0.04141268     0.28640
H2298       H  0.74725292  0.84456639  0.08635760     0.28630
H2299       H  0.73752794  0.78527592  0.01351583     0.19230
H2300       H  0.84083848  0.84573950  0.06493809     0.19230
C2301       C  0.77039574  0.97074451  0.01960958    -0.06600
C2302       C  0.79973153  0.98798842  0.03460458    -0.17730
C2303       C  0.81290033  0.97353006  0.05245579     0.10600
C2304       C  0.79494299  0.94127631  0.05933613    -0.06520
C2305       C  0.76426767  0.92480686  0.04808234    -0.17760
C2306       C  0.75248076  0.93837301  0.02659847     0.10630
S2307       S  0.85347510  0.99601894  0.06207896    -0.32720
S2308       S  0.71623392  0.91166523  0.00669923    -0.32730
H2309       H  0.72153523  0.92895586  0.97703206     0.28640
H2310       H  0.85961296  0.02435625  0.04756690     0.28630
H2311       H  0.81345958  0.01277740  0.02977065     0.19230
H2312       H  0.75004028  0.90016434  0.05360135     0.19230
C2313       C  0.96718570  0.91101791  0.82376741    -0.06600
C2314       C  0.98214444  0.91679584  0.85542379    -0.17730
C2315       C  0.97076467  0.89421921  0.88127695     0.10600
C2316       C  0.94431362  0.86458413  0.87504769    -0.06520
C2317       C  0.92975162  0.85892716  0.84328769    -0.17760
C2318       C  0.94075327  0.88145409  0.81785679     0.10630
S2319       S  0.49014741  0.90545999  0.92190197    -0.32720
S2320       S  0.92075730  0.86978972  0.77780325    -0.32730
H2321       H  0.94758263  0.88358028  0.75805655     0.28640
H2322       H  0.96372431  0.88723986  0.94151940     0.28630
H2323       H  0.50225467  0.93943621  0.86047948     0.19230
H2324       H  0.90994564  0.83619768  0.83772680     0.19230
C2325       C  0.85364249  0.78290392  0.93972419    -0.06600
C2326       C  0.84232342  0.80338105  0.94141792    -0.17730
C2327       C  0.81421509  0.79475177  0.95613993     0.10600
C2328       C  0.79794802  0.76614855  0.97371623    -0.06520
C2329       C  0.80820133  0.74489133  0.97086829    -0.17760
C2330       C  0.83461063  0.75211270  0.95225170     0.10630
S2331       S  0.80129281  0.82221797  0.95226008    -0.32720
S2332       S  0.84159212  0.72083891  0.94273932    -0.32730
H2333       H  0.82122813  0.69944852  0.96681211     0.28640
H2334       H  0.76992423  0.80024980  0.95516955     0.28630
H2335       H  0.85567309  0.82702480  0.93221171     0.19230
H2336       H  0.79600162  0.72282113  0.98393990     0.19230
C2337       C  0.95664368  0.78999348  0.95004345    -0.06600
C2338       C  0.98234133  0.79552635  0.93086843    -0.17730
C2339       C  0.00272556  0.78670118  0.94240117     0.10600
C2340       C  0.99503213  0.76699017  0.97110209    -0.06520
C2341       C  0.96803376  0.75904273  0.98875457    -0.17760
C2342       C  0.95062543  0.77261177  0.98066082     0.10630
S2343       S  0.03865825  0.80364946  0.91996259    -0.32720
S2344       S  0.92531584  0.77101746  0.01383296    -0.32730
H2345       H  0.93008496  0.80083815  0.00711999     0.28640
H2346       H  0.04602094  0.78146913  0.92960402     0.28630
H2347       H  0.98759927  0.80788968  0.90696858     0.19230
H2348       H  0.96247338  0.74507916  0.01159270     0.19230
C2349       C  0.94779515  0.64135096  0.95023781    -0.06600
C2350       C  0.96275640  0.66613318  0.92741564    -0.17730
C2351       C  0.98259693  0.69670475  0.93871938     0.10600
C2352       C  0.98714885  0.70301915  0.97418109    -0.06520
C2353       C  0.96970773  0.67836391  0.99689620    -0.17760
C2354       C  0.95096935  0.64766969  0.98551354     0.10630
S2355       S  0.00289814  0.72595347  0.90692561    -0.32720
S2356       S  0.93413244  0.61759481  0.01742548    -0.32730
H2357       H  0.93606381  0.59484555  0.99824730     0.28640
H2358       H  0.98962654  0.70730449  0.87779755     0.28630
H2359       H  0.95944207  0.66114886  0.90037512     0.19230
H2360       H  0.97263349  0.68263629  0.02409487     0.19230
C2361       C  0.78773144  0.50662716  0.96879419    -0.06600
C2362       C  0.80116395  0.53919069  0.96722832    -0.17730
C2363       C  0.82803366  0.55768634  0.94877836     0.10600
C2364       C  0.84506365  0.54442757  0.93627131    -0.06520
C2365       C  0.83110574  0.51180089  0.93679959    -0.17760
C2366       C  0.80216279  0.49296788  0.95103017     0.10630
S2367       S  0.83815112  0.59743092  0.94091602    -0.32720
S2368       S  0.78516511  0.95145691  0.94661091    -0.32730
H2369       H  0.75719716  0.94759579  0.93521046     0.28640
H2370       H  0.85423440  0.60048703  0.91064119     0.28630
H2371       H  0.79113346  0.55064494  0.98076001     0.19230
H2372       H  0.84292689  0.50058766  0.92691671     0.19230
C2373       C  0.96356714  0.53656655  0.82281681    -0.06600
C2374       C  0.94711934  0.51799929  0.85082722    -0.17730
C2375       C  0.93391186  0.52826098  0.87501660     0.10600
C2376       C  0.93665054  0.55771992  0.87117684    -0.06520
C2377       C  0.95320567  0.57639758  0.84347946    -0.17760
C2378       C  0.96617166  0.56609445  0.81914795     0.10630
S2379       S  0.91505483  0.00314907  0.91090902    -0.32720
S2380       S  0.98354939  0.59090791  0.78284434    -0.32730
H2381       H  0.46684498  0.56641538  0.75956075     0.28640
H2382       H  0.92277544  0.52713200  0.93453454     0.28630
H2383       H  0.94510648  0.99548347  0.85441599     0.19230
H2384       H  0.95515957  0.59887826  0.84013592     0.19230
loop_ 
_geom_bond_atom_site_label_1 
_geom_bond_atom_site_label_2 
_geom_bond_distance 
_geom_bond_site_symmetry_2 
_ccdc_geom_bond_type 
C1            C2   1.406       .  A
C1            C6   1.401       .  A
C1          C588   1.486       .  S
C2            C3   1.413       .  A
C2            H7   1.082       .  S
C3            C4   1.406       .  A
C3          C576   1.497       .  S
C4            C5   1.397       .  A
C4            H8   1.080       .  S
C5            C6   1.402       .  A
C5          C561   1.480       .  S
C6            H9   1.084       .  S
C10          C11   1.400       .  A
C10          C15   1.402       .  A
C10         C528   1.491       .  S
C11          C12   1.412       .  A
C11          H16   1.080       .  S
C12          C13   1.408       .  A
C12         C549   1.506       .  S
C13          C14   1.407       .  A
C13          H17   1.068       .  S
C14          C15   1.407       .  A
C14         C537   1.506       .  S
C15          H18   1.082       .  S
C19          C20   1.405       .  A
C19          C24   1.404       .  A
C19         C492   1.485       .  S
C20          C21   1.407       .  A
C20          H25   1.082       .  S
C21          C22   1.404       .  A
C21         C516   1.492       .  S
C22          C23   1.399       .  A
C22          H26   1.083       .  S
C23          C24   1.405       .  A
C23         C504   1.492       .  S
C24          H27   1.082       .  S
C28          C29   1.410       .  A
C28          C33   1.406       .  A
C28         C453   1.485       .  S
C29          C30   1.406       .  A
C29          H34   1.083       .  S
C30          C31   1.399       .  A
C30         C477   1.484       .  S
C31          C32   1.396       .  A
C31          H35   1.085       .  S
C32          C33   1.401       .  A
C32         C465   1.476       .  S
C33          H36   1.084       .  S
C37          C38   1.411       .  A
C37          C42   1.410       .  A
C37         C441   1.495       .  S
C38          C39   1.411       .  A
C38          H43   1.081       .  S
C39          C40   1.402       .  A
C39         C432   1.498       .  S
C40          C41   1.395       .  A
C40          H44   1.083       .  S
C41          C42   1.400       .  A
C41         C420   1.476       .  S
C42          H45   1.082       .  S
C46          C47   1.374       .  D
C46         C513   1.504   1_556  S
C46        C1169   1.507       .  S
C47         C417   1.500   1_556  S
C47        C1076   1.494       .  S
C48          C49   1.411       .  A
C48          C53   1.408       .  A
C48         C381   1.486       .  S
C49          C50   1.405       .  A
C49          H54   1.083       .  S
C50          C51   1.398       .  A
C50         C408   1.481       .  S
C51          C52   1.397       .  A
C51          H55   1.085       .  S
C52          C53   1.402       .  A
C52         C393   1.478       .  S
C53          H56   1.084       .  S
C57          C58   1.370       .  D
C57         C405   1.495   1_556  S
C57        C1756   1.504   1_455  S
C58         C429   1.498   1_556  S
C58        C1744   1.491   1_455  S
C59          C60   1.371       .  D
C59         C396   1.495   1_556  S
C59         C468   1.491       .  S
C60         C501   1.503   1_556  S
C60         C540   1.502       .  S
O61         Cr79   2.012   1_655  S
O61        C1261   1.266       .  A
O62         Cr79   1.985       .  S
O62          C63   1.261       .  A
C63         C456   1.485       .  S
C63         O660   1.264       .  A
O64         Cr80   2.000       .  S
O64         C659   1.264       .  A
O65         Cr80   1.985       .  S
O65        C1258   1.261   1_455  A
C66         C525   1.484       .  S
C66          O67   1.266       .  A
C66        O1257   1.261       .  A
O67         Cr81   2.008       .  S
O68         Cr81   1.979       .  S
O68         C665   1.261       .  A
C69         C585   1.493       .  S
C69        O1253   1.266       .  A
C69         O664   1.261   1_545  A
O70         Cr79   1.977       .  S
O70        C1270   1.259   1_455  A
O71         Cr79   2.017       .  S
O71          C72   1.268       .  A
C72         C357   1.479       .  S
C72         O669   1.261   1_545  A
O73         Cr80   1.980       .  S
O73         C668   1.261       .  A
O74         Cr80   2.007   1_655  S
O74        C1267   1.265       .  A
C75         C345   1.474       .  S
C75          O76   1.257       .  A
C75        O1266   1.265       .  A
O76         Cr81   1.975       .  S
O77         Cr81   1.999       .  S
O77         C674   1.264       .  A
C78         C372   1.469       .  S
C78        O1262   1.259       .  A
C78         O673   1.264       .  A
Cr79        O678   1.777   1_545  S
Cr80         O82   1.777       .  S
Cr81       O1274   1.777       .  S
O82        Cr675   1.777       .  S
O82       Cr1273   1.777   1_455  S
C83          C84   1.411       .  A
C83          C88   1.406       .  A
C83         C369   1.485       .  S
C84          C85   1.407       .  A
C84          H89   1.083       .  S
C85          C86   1.401       .  A
C85         C333   1.491       .  S
C86          C87   1.396       .  A
C86          H90   1.083       .  S
C87          C88   1.398       .  A
C87         C324   1.477       .  S
C88          H91   1.083       .  S
C92          C93   1.411       .  A
C92          C97   1.405       .  A
C92         C288   1.486       .  S
C93          C94   1.408       .  A
C93          H98   1.083       .  S
C94          C95   1.402       .  A
C94         C309   1.495       .  S
C95          C96   1.398       .  A
C95          H99   1.082       .  S
C96          C97   1.400       .  A
C96         C297   1.480       .  S
C97         H100   1.083       .  S
C101        C102   1.411       .  A
C101        C106   1.415       .  A
C101        C360   1.500       .  S
C102        C103   1.400       .  A
C102        H107   1.083       .  S
C103        C104   1.402       .  A
C103        C273   1.486       .  S
C104        C105   1.404       .  A
C104        H108   1.077       .  S
C105        C106   1.417       .  A
C105        C261   1.515       .  S
C106        H109   1.081       .  S
C110        C111   1.406       .  A
C110        C115   1.405       .  A
C110        C252   1.489       .  S
C111        C112   1.417       .  A
C111        H116   1.077       .  S
C112        C113   1.408       .  A
C112        C237   1.521       .  S
C113        C114   1.405       .  A
C113        H117   1.077       .  S
C114        C115   1.407       .  A
C114        C225   1.502       .  S
C115        H118   1.081       .  S
C119        C120   1.376   1_455  D
C119        C228   1.503       .  S
C119       C1393   1.504   1_455  S
C120        C213   1.496   1_655  S
C120       C1513   1.497       .  S
C121        C122   1.382       .  D
C121        C312   1.515       .  S
C121        C932   1.513       .  S
C122        C240   1.494       .  S
C122        C860   1.493       .  S
C123        C124   1.402       .  A
C123        C128   1.411       .  A
C123        C189   1.496       .  S
C124        C125   1.395       .  A
C124        H129   1.084       .  S
C125        C126   1.397       .  A
C125        C216   1.475       .  S
C126        C127   1.407       .  A
C126        H130   1.075       .  S
C127        C128   1.422       .  A
C127        C180   1.516       .  S
C128        H131   1.078       .  S
C132        C133   1.416       .  A
C132        C137   1.407       .  A
C132        C348   1.496       .  S
C133        C134   1.415       .  A
C133        H138   1.080       .  S
C134        C135   1.408       .  A
C134        C204   1.511       .  S
C135        C136   1.396       .  A
C135        H139   1.080       .  S
C136        C137   1.399       .  A
C136        C165   1.487       .  S
C137        H140   1.083       .  S
C141        C142   1.372       .  D
C141        C168   1.499       .  S
C141        C300   1.498       .  S
C142        C177   1.502       .  S
C142        C276   1.507       .  S
O143       Cr757   2.007       .  S
O143        C151   1.266       .  A
O144       Cr161   1.995       .  S
O144        C145   1.262       .  A
C145        C384   1.490       .  S
C145        O146   1.261       .  A
O146      Cr1354   1.991   1_455  S
O147       Cr758   1.981       .  S
O147        C148   1.261       .  A
C148        C489   1.489       .  S
C148        O149   1.266       .  A
O149       Cr163   2.005       .  S
O150      Cr1355   1.984   1_455  S
O150        C151   1.262       .  A
C151        C444   1.480       .  S
O152       Cr757   1.994       .  S
O152        C160   1.263       .  A
O153       Cr161   2.011       .  S
O153        C154   1.267       .  A
C154        C192   1.481       .  S
C154        O155   1.262       .  A
O155      Cr1354   1.980   1_455  S
O156       Cr758   1.995       .  S
O156        C157   1.262       .  A
C157        C285   1.487       .  S
C157        O158   1.264       .  A
O158       Cr163   1.995       .  S
O159      Cr1355   2.003   1_455  S
O159        C160   1.263       .  A
C160        C249   1.488       .  S
Cr161       O739   2.007   1_545  S
Cr161       O748   1.994   1_545  S
Cr161       O760   1.781   1_545  S
Cr162      O1338   1.991       .  S
Cr162       O743   1.981   1_545  S
Cr162      O1347   1.980       .  S
Cr162       O752   1.995   1_545  S
Cr162      O1952   1.778   1_545  S
Cr163      O1342   1.984       .  S
Cr163      O1351   2.003       .  S
Cr163      O1356   1.781       .  S
O164       Cr757   1.781       .  S
O164      Cr1950   1.778   1_455  S
O164      Cr1355   1.781   1_455  S
C165        C166   1.402       .  A
C165        C170   1.415       .  A
C166        C167   1.393       .  A
C166        H175   1.084       .  S
C167        C168   1.414       .  A
C167        S171   1.794       .  S
C168        C169   1.405       .  A
C169        C170   1.402       .  A
C169        H176   1.074       .  S
C170        S172   1.804       .  S
S171        H174   1.407       .  S
S172        H173   1.406       .  S
C177        C178   1.400       .  A
C177        C182   1.418       .  A
C178        C179   1.403       .  A
C178        H187   1.083       .  S
C179        C180   1.428       .  A
C179        S183   1.805       .  S
C180        C181   1.408       .  A
C181        C182   1.395       .  A
C181        H188   1.077       .  S
C182        S184   1.806       .  S
S183        H186   1.408       .  S
S184        H185   1.394       .  S
C189        C190   1.406       .  A
C189        C194   1.420       .  A
C190        C191   1.399       .  A
C190        H199   1.083       .  S
C191        C192   1.414       .  A
C191       S1387   1.802       .  S
C192        C193   1.403       .  A
C193        C194   1.403       .  A
C193        H200   1.084       .  S
C194        S196   1.804       .  S
S195       C1383   1.802       .  S
S195        H198   1.399       .  S
S196        H197   1.407       .  S
C201        C202   1.405       .  A
C201        C206   1.413       .  A
C201       C1311   1.504       .  S
C202        C203   1.396       .  A
C202        H211   1.084       .  S
C203        C204   1.420       .  A
C203        S207   1.791       .  S
C204        C205   1.415       .  A
C205        C206   1.398       .  A
C205        H212   1.082       .  S
C206        S208   1.798       .  S
S207        H210   1.407       .  S
S208        H209   1.404       .  S
C213        C214   1.411       .  A
C213        C218   1.419       .  A
C214        C215   1.389       .  A
C214        H223   1.084       .  S
C215        C216   1.406       .  A
C215        S219   1.806       .  S
C216        C217   1.405       .  A
C217        C218   1.403       .  A
C217        H224   1.084       .  S
C218        S220   1.806       .  S
S219        H222   1.406       .  S
S220        H221   1.397   1_455  S
C225        C226   1.412       .  A
C225        C230   1.415       .  A
C226        C227   1.398       .  A
C226        H235   1.080       .  S
C227        C228   1.413       .  A
C227        S231   1.803       .  S
C228        C229   1.410       .  A
C229        C230   1.400       .  A
C229       H1428   1.084   1_455  S
C230        S232   1.803       .  S
S231        H234   1.405       .  S
S232        H233   1.407       .  S
H236       C1421   1.084       .  S
C237        C238   1.415       .  A
C237        C242   1.427       .  A
C238        C239   1.402       .  A
C238        H247   1.076       .  S
C239        C240   1.413       .  A
C239        S839   1.800       .  S
C240        C241   1.397       .  A
C241        C242   1.394       .  A
C241        H248   1.084       .  S
C242        S244   1.804       .  S
S243        C835   1.800   1_545  S
S243        H246   1.402       .  S
S244        H245   1.408       .  S
C249        C250   1.408       .  A
C249        C254   1.414       .  A
C250        C251   1.402       .  A
C250        H259   1.082       .  S
C251        C252   1.411       .  A
C251        S255   1.803       .  S
C252        C253   1.407       .  A
C253        C254   1.404       .  A
C253        H260   1.084       .  S
C254        S256   1.803       .  S
S255        H258   1.406       .  S
S256        H257   1.407       .  S
C261        C262   1.416       .  A
C261        C266   1.430       .  A
C262        C263   1.407       .  A
C262        H271   1.082       .  S
C263        C264   1.410       .  A
C263        S863   1.801   1_545  S
C264        C265   1.391       .  A
C264        C718   1.493   1_545  S
C265        C266   1.391       .  A
C265        H272   1.078       .  S
C266        S268   1.805       .  S
S267        C859   1.801       .  S
S267        H270   1.400       .  S
S268        H269   1.408       .  S
C273        C274   1.402       .  A
C273        C278   1.404       .  A
C274        C275   1.415       .  A
C274        H283   1.082       .  S
C275        C276   1.423       .  A
C275        S279   1.802       .  S
C276        C277   1.400       .  A
C277        C278   1.391       .  A
C277        H284   1.063       .  S
C278        S280   1.808       .  S
S279        H282   1.407       .  S
S280        H281   1.407       .  S
C285        C286   1.404       .  A
C285        C290   1.420       .  A
C286        C287   1.404       .  A
C286        H295   1.084       .  S
C287        C288   1.418       .  A
C287        S291   1.804       .  S
C288        C289   1.399       .  A
C289        C290   1.395       .  A
C289        H296   1.084       .  S
C290        S292   1.802       .  S
S291        H294   1.406       .  S
S292        H293   1.400       .  S
C297        C298   1.400       .  A
C297        C302   1.414       .  A
C298        C299   1.391       .  A
C298        H307   1.084       .  S
C299        C300   1.414       .  A
C299        S303   1.796       .  S
C300        C301   1.406       .  A
C301        C302   1.401       .  A
C301        H308   1.079       .  S
C302        S304   1.803       .  S
S303        H306   1.400       .  S
S304        H305   1.406       .  S
C309        C310   1.404       .  A
C309        C314   1.415       .  A
C310        C311   1.403       .  A
C310        H319   1.083       .  S
C311        C312   1.423       .  A
C311        S315   1.804       .  S
C312        C313   1.406       .  A
C313        C314   1.394       .  A
C313        H320   1.069       .  S
C314        S316   1.807       .  S
S315        H914   1.405       .  S
S316        H317   1.407       .  S
H318        S911   1.405       .  S
C321        C322   1.407       .  A
C321        C326   1.418       .  A
C321       C1312   1.497       .  S
C322        C323   1.401       .  A
C322        H331   1.083       .  S
C323        C324   1.413       .  A
C323        S327   1.802       .  S
C324        C325   1.398       .  A
C325        C326   1.389       .  A
C325        H332   1.084       .  S
C326        S328   1.800       .  S
S327        H330   1.406       .  S
S328        H329   1.399       .  S
C333        C334   1.404       .  A
C333        C338   1.413       .  A
C334        C335   1.403   1_545  A
C334        H343   1.083       .  S
C335        C336   1.422   1_565  A
C335        S935   1.804       .  S
C336        C337   1.406       .  A
C336        C717   1.513   1_545  S
C337        C338   1.392       .  A
C337        H344   1.071       .  S
C338        S340   1.807       .  S
S339        C931   1.804       .  S
S339        H342   1.405       .  S
S340        H341   1.407       .  S
C345        C346   1.400       .  A
C345        C350   1.416       .  A
C346        C347   1.397       .  A
C346       H1547   1.085       .  S
C347        C348   1.416       .  A
C347       S1543   1.796       .  S
C348        C349   1.408       .  A
C349        C350   1.402       .  A
C349        H356   1.083       .  S
C350        S352   1.807       .  S
S351       C1539   1.796       .  S
S351       H1546   1.407       .  S
S352        H353   1.398       .  S
H354       S1543   1.407       .  S
H355       C1538   1.085   1_455  S
C357        C358   1.401       .  A
C357        C362   1.410       .  A
C358        C359   1.407       .  A
C358        H963   1.083       .  S
C359        C360   1.421       .  A
C359        S363   1.809       .  S
C360        C361   1.409       .  A
C361        C362   1.403       .  A
C361        H368   1.083       .  S
C362        S364   1.802       .  S
S363        H366   1.407       .  S
S364        H365   1.406       .  S
H367        C954   1.083       .  S
C369        C370   1.406       .  A
C369        C374   1.417       .  A
C370        C371   1.398       .  A
C370        H379   1.084       .  S
C371        C372   1.409       .  A
C371        S971   1.802   1_545  S
C372        C373   1.400       .  A
C373        C374   1.399       .  A
C373        H380   1.083       .  S
C374        S376   1.803       .  S
S375        C967   1.802       .  S
S375        H378   1.407       .  S
S376        H377   1.407       .  S
C381        C382   1.407       .  A
C381        C386   1.411       .  A
C382        C383   1.404       .  A
C382        H391   1.084       .  S
C383        C384   1.415       .  A
C383        S387   1.800       .  S
C384        C385   1.408       .  A
C385        C386   1.397       .  A
C385        H392   1.082       .  S
C386        S388   1.805       .  S
S387        H390   1.407       .  S
S388        H389   1.406       .  S
C393        C394   1.404       .  A
C393        C398   1.412       .  A
C394        C395   1.405       .  A
C394        H403   1.084       .  S
C395        C396   1.419       .  A
C395        S399   1.801       .  S
C396        C397   1.402       .  A
C397        C398   1.385       .  A
C397        H404   1.083   1_554  S
C398        S400   1.804   1_554  S
S399        H402   1.403       .  S
S400        H401   1.407   1_556  S
C405        C406   1.410       .  A
C405        C410   1.410   1_554  A
C406        C407   1.403       .  A
C406        H415   1.080       .  S
C407        C408   1.411       .  A
C407        S411   1.802       .  S
C408        C409   1.402       .  A
C409        C410   1.390   1_554  A
C409        H416   1.080       .  S
C410        S412   1.800       .  S
S411        H414   1.406       .  S
S412        H413   1.402       .  S
C417        C418   1.413       .  A
C417        C422   1.418       .  A
C418        C419   1.407       .  A
C418        H427   1.083       .  S
C419        C420   1.410       .  A
C419        S423   1.803       .  S
C420        C421   1.399       .  A
C421        C422   1.387       .  A
C421        H428   1.085       .  S
C422        S424   1.805   1_554  S
S423        H426   1.404       .  S
S424        H425   1.401       .  S
C429        C430   1.407       .  A
C429        C434   1.408       .  A
C430        C431   1.399       .  A
C430       H1631   1.081       .  S
C431        C432   1.416       .  A
C431        S435   1.803       .  S
C432        C433   1.412       .  A
C433        C434   1.394       .  A
C433        H440   1.082       .  S
C434        S436   1.795   1_554  S
S435        H438   1.407       .  S
S436        H437   1.401       .  S
H439       C1622   1.081       .  S
C441        C442   1.408       .  A
C441        C446   1.417       .  A
C442        C443   1.400       .  A
C442        H451   1.084       .  S
C443        C444   1.413       .  A
C443        S447   1.803       .  S
C444        C445   1.403       .  A
C445        C446   1.402       .  A
C445        H452   1.082       .  S
C446        S448   1.804       .  S
S447        H450   1.400       .  S
S448        H449   1.407       .  S
C453        C454   1.406       .  A
C453        C458   1.412       .  A
C454        C455   1.403       .  A
C454        H463   1.084       .  S
C455        C456   1.415       .  A
C455        S459   1.803       .  S
C456        C457   1.406       .  A
C457        C458   1.398       .  A
C457        H464   1.084       .  S
C458        S460   1.804       .  S
S459        H462   1.408       .  S
S460        H461   1.406       .  S
C465        C466   1.403       .  A
C465        C470   1.413       .  A
C466        C467   1.402       .  A
C466        H475   1.084       .  S
C467        C468   1.418       .  A
C467        S471   1.801       .  S
C468        C469   1.400       .  A
C469        C470   1.387       .  A
C469        H476   1.084   1_556  S
C470        S472   1.804   1_556  S
S471        H474   1.402       .  S
S472        H473   1.407   1_554  S
C477        C478   1.403       .  A
C477        C482   1.414       .  A
C478        C479   1.387       .  A
C478        H487   1.079       .  S
C479        C480   1.410       .  A
C479        S483   1.804   1_556  S
C480        C481   1.409       .  A
C480        C643   1.494   1_545  S
C481        C482   1.404       .  A
C481        H488   1.083   1_545  S
C482        S484   1.802       .  S
S483        H486   1.407       .  S
S484        H485   1.406       .  S
C489        C490   1.409       .  A
C489        C494   1.416       .  A
C490        C491   1.398       .  A
C490        H499   1.083       .  S
C491        C492   1.411       .  A
C491        S495   1.805       .  S
C492        C493   1.406       .  A
C493        C494   1.402       .  A
C493        H500   1.084       .  S
C494        S496   1.803       .  S
S495        H498   1.407       .  S
S496       H1093   1.408       .  S
H497       S1092   1.408   1_565  S
C501        C502   1.406       .  A
C501        C506   1.420       .  A
C502        C503   1.397       .  A
C502        H511   1.081       .  S
C503        C504   1.419       .  A
C503        S507   1.805       .  S
C504        C505   1.403       .  A
C505        C506   1.394       .  A
C505        H512   1.082       .  S
C506        S508   1.805       .  S
S507        H510   1.407       .  S
S508        H509   1.404       .  S
C513        C514   1.410       .  A
C513        C518   1.418       .  A
C514        C515   1.400       .  A
C514        H523   1.082       .  S
C515        C516   1.413       .  A
C515        S519   1.810       .  S
C516        C517   1.408       .  A
C517        C518   1.396       .  A
C517        H524   1.083       .  S
C518        S520   1.803       .  S
S519        H522   1.407       .  S
S520        H521   1.394   1_554  S
C525        C526   1.406       .  A
C525        C530   1.414       .  A
C526        C527   1.406       .  A
C526       H1727   1.084       .  S
C527        C528   1.419       .  A
C527       S1723   1.804       .  S
C528        C529   1.401       .  A
C529        C530   1.392       .  A
C529        H536   1.084       .  S
C530        S532   1.797       .  S
S531       C1719   1.804       .  S
S531       H1726   1.406       .  S
S532        H533   1.406       .  S
H534       S1723   1.406       .  S
H535       C1718   1.084   1_455  S
C537        C538   1.409       .  A
C537        C542   1.422       .  A
C538        C539   1.390       .  A
C538        H547   1.080       .  S
C539        C540   1.413       .  A
C539        S543   1.807       .  S
C540        C541   1.407       .  A
C541        C542   1.405       .  A
C541        H548   1.080       .  S
C542        S544   1.809       .  S
S543        H546   1.402       .  S
S544        H545   1.407       .  S
C549        C550   1.408       .  A
C549        C554   1.424       .  A
C550        C551   1.394       .  A
C550        H559   1.081       .  S
C551        C552   1.416       .  A
C551        S555   1.803       .  S
C552        C553   1.402       .  A
C552       C1250   1.491       .  S
C553        C554   1.400       .  A
C553        H560   1.083   1_556  S
C554        S556   1.805   1_556  S
S555        H558   1.393       .  S
S556        H557   1.407       .  S
C561        C562   1.399       .  A
C561        C566   1.410       .  A
C562        C563   1.400       .  A
C562        H571   1.083       .  S
C563        C564   1.419       .  A
C563        S567   1.796       .  S
C564        C565   1.409       .  A
C564       C1249   1.504       .  S
C565        C566   1.398       .  A
C565        H572   1.083   1_556  S
C566        S568   1.804   1_556  S
S567        H570   1.406       .  S
S568        H569   1.406   1_554  S
C573        C574   1.406       .  A
C573        C578   1.415   1_545  A
C573        C642   1.507   1_545  S
C574        C575   1.398       .  A
C574        H583   1.081       .  S
C575        C576   1.420       .  A
C575        S579   1.805       .  S
C576        C577   1.405       .  A
C577        C578   1.395   1_545  A
C577        H584   1.082       .  S
C578       S1176   1.797       .  S
S579        H582   1.407       .  S
S580       C1174   1.797       .  S
S580        H581   1.406       .  S
C585        C586   1.408       .  A
C585        C590   1.420       .  A
C586        C587   1.403       .  A
C586       H1191   1.084   1_545  S
C587        C588   1.414       .  A
C587       S1187   1.804       .  S
C588        C589   1.401       .  A
C589        C590   1.400       .  A
C589        H596   1.084       .  S
C590        S592   1.800       .  S
S591       C1183   1.804       .  S
S591       H1190   1.406       .  S
S592       H1785   1.407       .  S
H593       S1784   1.407       .  S
H594       S1187   1.406       .  S
H595       C1182   1.083       .  S
C597        C598   1.406       .  A
C597        C602   1.401       .  A
C597       C1184   1.486       .  S
C598        C599   1.413       .  A
C598        H603   1.082       .  S
C599        C600   1.406       .  A
C599       C1172   1.497       .  S
C600        C601   1.397       .  A
C600        H604   1.080       .  S
C601        C602   1.402       .  A
C601       C1157   1.480       .  S
C602        H605   1.084       .  S
C606        C607   1.400       .  A
C606        C611   1.402       .  A
C606       C1124   1.491       .  S
C607        C608   1.412       .  A
C607        H612   1.080       .  S
C608        C609   1.408       .  A
C608       C1145   1.506       .  S
C609        C610   1.407       .  A
C609        H613   1.068       .  S
C610        C611   1.407       .  A
C610       C1133   1.506       .  S
C611        H614   1.082       .  S
C615        C616   1.405       .  A
C615        C620   1.404       .  A
C615       C1088   1.485       .  S
C616        C617   1.407       .  A
C616        H621   1.082       .  S
C617        C618   1.404       .  A
C617       C1112   1.492       .  S
C618        C619   1.399       .  A
C618        H622   1.083       .  S
C619        C620   1.405       .  A
C619       C1100   1.492       .  S
C620        H623   1.082       .  S
C624        C625   1.410       .  A
C624        C629   1.406       .  A
C624       C1049   1.485       .  S
C625        C626   1.406       .  A
C625        H630   1.083       .  S
C626        C627   1.399       .  A
C626       C1073   1.484       .  S
C627        C628   1.396       .  A
C627        H631   1.085       .  S
C628        C629   1.401       .  A
C628       C1061   1.476       .  S
C629        H632   1.084       .  S
C633        C634   1.411       .  A
C633        C638   1.410       .  A
C633       C1037   1.495       .  S
C634        C635   1.411       .  A
C634        H639   1.081       .  S
C635        C636   1.402       .  A
C635       C1028   1.498       .  S
C636        C637   1.395       .  A
C636        H640   1.083       .  S
C637        C638   1.400       .  A
C637       C1016   1.476       .  S
C638        H641   1.082       .  S
C642        C643   1.374       .  D
C642       C1109   1.504   1_556  S
C643       C1013   1.500   1_556  S
C644        C645   1.411       .  A
C644        C649   1.408       .  A
C644        C977   1.486       .  S
C645        C646   1.405       .  A
C645        H650   1.083       .  S
C646        C647   1.398       .  A
C646       C1004   1.481       .  S
C647        C648   1.397       .  A
C647        H651   1.085       .  S
C648        C649   1.402       .  A
C648        C989   1.478       .  S
C649        H652   1.084       .  S
C653        C654   1.370       .  D
C653       C1001   1.495   1_556  S
C653       C2352   1.504   1_455  S
C654       C1025   1.498   1_556  S
C654       C2340   1.491   1_455  S
C655        C656   1.371       .  D
C655        C992   1.495   1_556  S
C655       C1064   1.491       .  S
C656       C1097   1.503   1_556  S
C656       C1136   1.502       .  S
O657       Cr675   2.012   1_655  S
O657       C1857   1.266       .  A
O658       Cr675   1.985       .  S
O658        C659   1.261       .  A
C659       C1052   1.485       .  S
O660       Cr676   2.000   1_545  S
O661       Cr676   1.985       .  S
O661       C1854   1.261   1_455  A
C662       C1121   1.484       .  S
C662       O1853   1.261       .  A
C662        O663   1.266       .  A
O663       Cr677   2.008       .  S
O664       Cr677   1.979       .  S
C665       C1181   1.493       .  S
C665       O1849   1.266       .  A
O666       Cr675   1.977       .  S
O666       C1866   1.259   1_455  A
O667       Cr675   2.017       .  S
O667        C668   1.268       .  A
C668        C953   1.479       .  S
O669       Cr676   1.980       .  S
O670       Cr676   2.007   1_655  S
O670       C1863   1.265       .  A
C671        C941   1.474       .  S
C671       O1862   1.265       .  A
C671        O672   1.257       .  A
O672       Cr677   1.975       .  S
O673       Cr677   1.999   1_545  S
C674        C968   1.469       .  S
C674       O1858   1.259       .  A
Cr676       O678   1.777       .  S
Cr677      O1870   1.777       .  S
O678      Cr1869   1.777   1_455  S
C679        C680   1.411       .  A
C679        C684   1.406       .  A
C679        C965   1.485       .  S
C680        C681   1.407       .  A
C680        H685   1.083       .  S
C681        C682   1.401       .  A
C681        C929   1.491       .  S
C682        C683   1.396       .  A
C682        H686   1.083       .  S
C683        C684   1.398       .  A
C683        C920   1.477       .  S
C684        H687   1.083       .  S
C688        C689   1.411       .  A
C688        C693   1.405       .  A
C688        C884   1.486       .  S
C689        C690   1.408       .  A
C689        H694   1.083       .  S
C690        C691   1.402       .  A
C690        C905   1.495       .  S
C691        C692   1.398       .  A
C691        H695   1.082       .  S
C692        C693   1.400       .  A
C692        C893   1.480       .  S
C693        H696   1.083       .  S
C697        C698   1.411       .  A
C697        C702   1.415       .  A
C697        C956   1.500       .  S
C698        C699   1.400       .  A
C698        H703   1.083       .  S
C699        C700   1.402       .  A
C699        C869   1.486       .  S
C700        C701   1.404       .  A
C700        H704   1.077       .  S
C701        C702   1.417       .  A
C701        C857   1.515       .  S
C702        H705   1.081       .  S
C706        C707   1.406       .  A
C706        C711   1.405       .  A
C706        C848   1.489       .  S
C707        C708   1.417       .  A
C707        H712   1.077       .  S
C708        C709   1.408       .  A
C708        C833   1.521       .  S
C709        C710   1.405       .  A
C709        H713   1.077       .  S
C710        C711   1.407       .  A
C710        C821   1.502       .  S
C711        H714   1.081       .  S
C715        C716   1.376   1_455  D
C715       C1989   1.504   1_455  S
C715        C824   1.503       .  S
C716        C809   1.496   1_655  S
C716       C2109   1.497       .  S
C717        C718   1.382       .  D
C717        C908   1.515       .  S
C718        C836   1.494       .  S
C719        C720   1.402       .  A
C719        C724   1.411       .  A
C719        C785   1.496       .  S
C720        C721   1.395       .  A
C720        H725   1.084       .  S
C721        C722   1.397       .  A
C721        C812   1.475       .  S
C722        C723   1.407       .  A
C722        H726   1.075       .  S
C723        C724   1.422       .  A
C723        C776   1.516       .  S
C724        H727   1.078       .  S
C728        C729   1.416       .  A
C728        C733   1.407       .  A
C728        C944   1.496       .  S
C729        C730   1.415       .  A
C729        H734   1.080       .  S
C730        C731   1.408       .  A
C730        C800   1.511       .  S
C731        C732   1.396       .  A
C731        H735   1.080       .  S
C732        C733   1.399       .  A
C732        C761   1.487       .  S
C733        H736   1.083       .  S
C737        C738   1.372       .  D
C737        C764   1.499       .  S
C737        C896   1.498       .  S
C738        C773   1.502       .  S
C738        C872   1.507       .  S
O739        C747   1.266       .  A
O740       Cr757   1.995       .  S
O740        C741   1.262       .  A
C741        C980   1.490       .  S
C741        O742   1.261       .  A
O742      Cr1950   1.991   1_455  S
O743        C744   1.261       .  A
C744       C1085   1.489       .  S
C744        O745   1.266       .  A
O745       Cr759   2.005       .  S
O746      Cr1951   1.984   1_455  S
O746        C747   1.262       .  A
C747       C1040   1.480       .  S
O748        C756   1.263       .  A
O749       Cr757   2.011       .  S
O749        C750   1.267       .  A
C750        C788   1.481       .  S
C750        O751   1.262       .  A
O751      Cr1950   1.980   1_455  S
O752        C753   1.262       .  A
C753        C881   1.487       .  S
C753        O754   1.264       .  A
O754       Cr759   1.995       .  S
O755      Cr1951   2.003   1_455  S
O755        C756   1.263       .  A
C756        C845   1.488       .  S
Cr758      O1934   1.991       .  S
Cr758      O1943   1.980       .  S
Cr758      O1356   1.778       .  S
Cr759      O1938   1.984       .  S
Cr759      O1947   2.003       .  S
Cr759      O1952   1.781       .  S
O760      Cr1354   1.778   1_465  S
O760      Cr1951   1.781   1_455  S
C761        C762   1.402       .  A
C761        C766   1.415       .  A
C762        C763   1.393       .  A
C762        H771   1.084       .  S
C763        C764   1.414       .  A
C763        S767   1.794       .  S
C764        C765   1.405       .  A
C765        C766   1.402       .  A
C765        H772   1.074       .  S
C766        S768   1.804       .  S
S767        H770   1.407       .  S
S768        H769   1.406       .  S
C773        C774   1.400       .  A
C773        C778   1.418       .  A
C774        C775   1.403       .  A
C774        H783   1.083       .  S
C775        C776   1.428       .  A
C775        S779   1.805       .  S
C776        C777   1.408       .  A
C777        C778   1.395       .  A
C777        H784   1.077       .  S
C778        S780   1.806       .  S
S779        H782   1.408       .  S
S780        H781   1.394       .  S
C785        C786   1.406       .  A
C785        C790   1.420       .  A
C786        C787   1.399       .  A
C786        H795   1.083       .  S
C787        C788   1.414       .  A
C787       S1983   1.802       .  S
C788        C789   1.403       .  A
C789        C790   1.403       .  A
C789        H796   1.084       .  S
C790        S792   1.804       .  S
S791       C1979   1.802       .  S
S791        H794   1.399       .  S
S792        H793   1.407       .  S
C797        C798   1.405       .  A
C797        C802   1.413       .  A
C797       C1907   1.504       .  S
C798        C799   1.396       .  A
C798        H807   1.084       .  S
C799        C800   1.420       .  A
C799        S803   1.791       .  S
C800        C801   1.415       .  A
C801        C802   1.398       .  A
C801        H808   1.082       .  S
C802        S804   1.798       .  S
S803        H806   1.407       .  S
S804        H805   1.404       .  S
C809        C810   1.411       .  A
C809        C814   1.419       .  A
C810        C811   1.389       .  A
C810        H819   1.084       .  S
C811        C812   1.406       .  A
C811        S815   1.806       .  S
C812        C813   1.405       .  A
C813        C814   1.403       .  A
C813        H820   1.084       .  S
C814        S816   1.806       .  S
S815        H818   1.406       .  S
S816        H817   1.397   1_455  S
C821        C822   1.412       .  A
C821        C826   1.415       .  A
C822        C823   1.398       .  A
C822        H831   1.080       .  S
C823        C824   1.413       .  A
C823        S827   1.803       .  S
C824        C825   1.410       .  A
C825        C826   1.400       .  A
C825       H2024   1.084   1_455  S
C826        S828   1.803       .  S
S827        H830   1.405       .  S
S828        H829   1.407       .  S
H832       C2017   1.084       .  S
C833        C834   1.415       .  A
C833        C838   1.427       .  A
C834        C835   1.402       .  A
C834        H843   1.076       .  S
C835        C836   1.413       .  A
C836        C837   1.397       .  A
C837        C838   1.394       .  A
C837        H844   1.084       .  S
C838        S840   1.804       .  S
S839        H842   1.402       .  S
S840        H841   1.408       .  S
C845        C846   1.408       .  A
C845        C850   1.414       .  A
C846        C847   1.402       .  A
C846        H855   1.082       .  S
C847        C848   1.411       .  A
C847        S851   1.803       .  S
C848        C849   1.407       .  A
C849        C850   1.404       .  A
C849        H856   1.084       .  S
C850        S852   1.803       .  S
S851        H854   1.406       .  S
S852        H853   1.407       .  S
C857        C858   1.416       .  A
C857        C862   1.430       .  A
C858        C859   1.407       .  A
C858        H867   1.082       .  S
C859        C860   1.410       .  A
C860        C861   1.391       .  A
C861        C862   1.391       .  A
C861        H868   1.078       .  S
C862        S864   1.805       .  S
S863        H866   1.400       .  S
S864        H865   1.408       .  S
C869        C870   1.402       .  A
C869        C874   1.404       .  A
C870        C871   1.415       .  A
C870        H879   1.082       .  S
C871        C872   1.423       .  A
C871        S875   1.802       .  S
C872        C873   1.400       .  A
C873        C874   1.391       .  A
C873        H880   1.063       .  S
C874        S876   1.808       .  S
S875        H878   1.407       .  S
S876        H877   1.407       .  S
C881        C882   1.404       .  A
C881        C886   1.420       .  A
C882        C883   1.404       .  A
C882        H891   1.084       .  S
C883        C884   1.418       .  A
C883        S887   1.804       .  S
C884        C885   1.399       .  A
C885        C886   1.395       .  A
C885        H892   1.084       .  S
C886        S888   1.802       .  S
S887        H890   1.406       .  S
S888        H889   1.400       .  S
C893        C894   1.400       .  A
C893        C898   1.414       .  A
C894        C895   1.391       .  A
C894        H903   1.084       .  S
C895        C896   1.414       .  A
C895        S899   1.796       .  S
C896        C897   1.406       .  A
C897        C898   1.401       .  A
C897        H904   1.079       .  S
C898        S900   1.803       .  S
S899        H902   1.400       .  S
S900        H901   1.406       .  S
C905        C906   1.404       .  A
C905        C910   1.415       .  A
C906        C907   1.403       .  A
C906        H915   1.083       .  S
C907        C908   1.423       .  A
C907        S911   1.804   1_565  S
C908        C909   1.406       .  A
C909        C910   1.394       .  A
C909        H916   1.069       .  S
C910        S912   1.807       .  S
S912        H913   1.407       .  S
C917        C918   1.407       .  A
C917        C922   1.418       .  A
C917       C1908   1.497       .  S
C918        C919   1.401       .  A
C918        H927   1.083       .  S
C919        C920   1.413       .  A
C919        S923   1.802       .  S
C920        C921   1.398       .  A
C921        C922   1.389       .  A
C921        H928   1.084       .  S
C922        S924   1.800       .  S
S923        H926   1.406       .  S
S924        H925   1.399       .  S
C929        C930   1.404       .  A
C929        C934   1.413       .  A
C930        C931   1.403       .  A
C930        H939   1.083       .  S
C931        C932   1.422       .  A
C932        C933   1.406       .  A
C933        C934   1.392       .  A
C933        H940   1.071       .  S
C934        S936   1.807       .  S
S935        H938   1.405       .  S
S936        H937   1.407       .  S
C941        C942   1.399       .  A
C941        C946   1.416       .  A
C942        C943   1.397       .  A
C942       H2143   1.085       .  S
C943        C944   1.416       .  A
C943       S2139   1.796       .  S
C944        C945   1.408       .  A
C945        C946   1.402       .  A
C945        H952   1.083       .  S
C946        S948   1.807       .  S
S947       C2135   1.796       .  S
S947       H2142   1.407       .  S
S948        H949   1.398       .  S
H950       S2139   1.407       .  S
H951       C2134   1.085   1_455  S
C953        C954   1.401       .  A
C953        C958   1.410       .  A
C954        C955   1.407       .  A
C955        C956   1.421       .  A
C955        S959   1.809       .  S
C956        C957   1.409       .  A
C957        C958   1.403       .  A
C957        H964   1.083       .  S
C958        S960   1.802       .  S
S959        H962   1.407       .  S
S960        H961   1.406       .  S
C965        C966   1.406       .  A
C965        C970   1.417       .  A
C966        C967   1.398       .  A
C966        H975   1.084       .  S
C967        C968   1.409       .  A
C968        C969   1.400       .  A
C969        C970   1.399       .  A
C969        H976   1.083       .  S
C970        S972   1.803       .  S
S971        H974   1.407       .  S
S972        H973   1.407       .  S
C977        C978   1.407       .  A
C977        C982   1.411       .  A
C978        C979   1.404       .  A
C978        H987   1.084       .  S
C979        C980   1.415       .  A
C979        S983   1.800       .  S
C980        C981   1.408       .  A
C981        C982   1.397       .  A
C981        H988   1.082       .  S
C982        S984   1.805       .  S
S983        H986   1.407       .  S
S984        H985   1.406       .  S
C989        C990   1.404       .  A
C989        C994   1.412       .  A
C990        C991   1.406       .  A
C990        H999   1.084       .  S
C991        C992   1.419       .  A
C991        S995   1.801       .  S
C992        C993   1.402       .  A
C993        C994   1.385       .  A
C993       H1000   1.083   1_554  S
C994        S996   1.804   1_554  S
S995        H998   1.403       .  S
S996        H997   1.407   1_556  S
C1001      C1002   1.410       .  A
C1001      C1006   1.410   1_554  A
C1002      C1003   1.403       .  A
C1002      H1011   1.080       .  S
C1003      C1004   1.411       .  A
C1003      S1007   1.802       .  S
C1004      C1005   1.402       .  A
C1005      C1006   1.390   1_554  A
C1005      H1012   1.080       .  S
C1006      S1008   1.800       .  S
S1007      H1010   1.406       .  S
S1008      H1009   1.402       .  S
C1013      C1014   1.413       .  A
C1013      C1018   1.418       .  A
C1014      C1015   1.407       .  A
C1014      H1023   1.083       .  S
C1015      C1016   1.410       .  A
C1015      S1019   1.803       .  S
C1016      C1017   1.399       .  A
C1017      C1018   1.387       .  A
C1017      H1024   1.085       .  S
C1018      S1020   1.805   1_554  S
S1019      H1022   1.404       .  S
S1020      H1021   1.401       .  S
C1025      C1026   1.407       .  A
C1025      C1030   1.408       .  A
C1026      C1027   1.399       .  A
C1026      H2227   1.081       .  S
C1027      C1028   1.416       .  A
C1027      S1031   1.803       .  S
C1028      C1029   1.412       .  A
C1029      C1030   1.394       .  A
C1029      H1036   1.082       .  S
C1030      S1032   1.795   1_554  S
S1031      H1034   1.407       .  S
S1032      H1033   1.401       .  S
H1035      C2218   1.081       .  S
C1037      C1038   1.408       .  A
C1037      C1042   1.417       .  A
C1038      C1039   1.400       .  A
C1038      H1047   1.084       .  S
C1039      C1040   1.413       .  A
C1039      S1043   1.803       .  S
C1040      C1041   1.403       .  A
C1041      C1042   1.402       .  A
C1041      H1048   1.082       .  S
C1042      S1044   1.804       .  S
S1043      H1046   1.400       .  S
S1044      H1045   1.407       .  S
C1049      C1050   1.406       .  A
C1049      C1054   1.412       .  A
C1050      C1051   1.403       .  A
C1050      H1059   1.084       .  S
C1051      C1052   1.415       .  A
C1051      S1055   1.803       .  S
C1052      C1053   1.406       .  A
C1053      C1054   1.398       .  A
C1053      H1060   1.084       .  S
C1054      S1056   1.804       .  S
S1055      H1058   1.408       .  S
S1056      H1057   1.406       .  S
C1061      C1062   1.403       .  A
C1061      C1066   1.413       .  A
C1062      C1063   1.402       .  A
C1062      H1071   1.084       .  S
C1063      C1064   1.418       .  A
C1063      S1067   1.801       .  S
C1064      C1065   1.400       .  A
C1065      C1066   1.387       .  A
C1065      H1072   1.084   1_556  S
C1066      S1068   1.804   1_556  S
S1067      H1070   1.402       .  S
S1068      H1069   1.407   1_554  S
C1073      C1074   1.403       .  A
C1073      C1078   1.413       .  A
C1074      C1075   1.387       .  A
C1074      H1083   1.079       .  S
C1075      C1076   1.410       .  A
C1075      S1079   1.804   1_556  S
C1076      C1077   1.409       .  A
C1077      C1078   1.404       .  A
C1077      H1084   1.083       .  S
C1078      S1080   1.802       .  S
S1079      H1082   1.407       .  S
S1080      H1081   1.406       .  S
C1085      C1086   1.409       .  A
C1085      C1090   1.416       .  A
C1086      C1087   1.398       .  A
C1086      H1095   1.083       .  S
C1087      C1088   1.411       .  A
C1087      S1091   1.805       .  S
C1088      C1089   1.406       .  A
C1089      C1090   1.402       .  A
C1089      H1096   1.084       .  S
C1090      S1092   1.803   1_565  S
S1091      H1094   1.407       .  S
C1097      C1098   1.406       .  A
C1097      C1102   1.420       .  A
C1098      C1099   1.397       .  A
C1098      H1107   1.081       .  S
C1099      C1100   1.419       .  A
C1099      S1103   1.805       .  S
C1100      C1101   1.403       .  A
C1101      C1102   1.394       .  A
C1101      H1108   1.082       .  S
C1102      S1104   1.805       .  S
S1103      H1106   1.407       .  S
S1104      H1105   1.404       .  S
C1109      C1110   1.410       .  A
C1109      C1114   1.418       .  A
C1110      C1111   1.400       .  A
C1110      H1119   1.082   1_565  S
C1111      C1112   1.413       .  A
C1111      S1115   1.810       .  S
C1112      C1113   1.408       .  A
C1113      C1114   1.396       .  A
C1113      H1120   1.083       .  S
C1114      S1116   1.803       .  S
S1115      H1118   1.407   1_565  S
S1116      H1117   1.394   1_554  S
C1121      C1122   1.406       .  A
C1121      C1126   1.414       .  A
C1122      C1123   1.406       .  A
C1122      H2323   1.084       .  S
C1123      C1124   1.419       .  A
C1123      S2319   1.804       .  S
C1124      C1125   1.401       .  A
C1125      C1126   1.392       .  A
C1125      H1132   1.084       .  S
C1126      S1128   1.797       .  S
S1127      C2315   1.804       .  S
S1127      H2322   1.406       .  S
S1128      H1129   1.406       .  S
H1130      S2319   1.406       .  S
H1131      C2314   1.084   1_455  S
C1133      C1134   1.409       .  A
C1133      C1138   1.422       .  A
C1134      C1135   1.390       .  A
C1134      H1143   1.080       .  S
C1135      C1136   1.413       .  A
C1135      S1139   1.807       .  S
C1136      C1137   1.407       .  A
C1137      C1138   1.405       .  A
C1137      H1144   1.080       .  S
C1138      S1140   1.809       .  S
S1139      H1142   1.402       .  S
S1140      H1141   1.407       .  S
C1145      C1146   1.408       .  A
C1145      C1150   1.424       .  A
C1146      C1147   1.394       .  A
C1146      H1155   1.081       .  S
C1147      C1148   1.416       .  A
C1147      S1151   1.803       .  S
C1148      C1149   1.402       .  A
C1148      C1846   1.491       .  S
C1149      C1150   1.400       .  A
C1149      H1156   1.083   1_556  S
C1150      S1152   1.805   1_556  S
S1151      H1154   1.393       .  S
S1152      H1153   1.407       .  S
C1157      C1158   1.399       .  A
C1157      C1162   1.410       .  A
C1158      C1159   1.400       .  A
C1158      H1167   1.083       .  S
C1159      C1160   1.419       .  A
C1159      S1163   1.796       .  S
C1160      C1161   1.409       .  A
C1160      C1845   1.504       .  S
C1161      C1162   1.398       .  A
C1161      H1168   1.083   1_556  S
C1162      S1164   1.804   1_556  S
S1163      H1166   1.406       .  S
S1164      H1165   1.406   1_554  S
C1169      C1170   1.406       .  A
C1169      C1174   1.415       .  A
C1170      C1171   1.398       .  A
C1170      H1179   1.081       .  S
C1171      C1172   1.420       .  A
C1171      S1175   1.805       .  S
C1172      C1173   1.405       .  A
C1173      C1174   1.395       .  A
C1173      H1180   1.082       .  S
S1175      H1178   1.407       .  S
S1176      H1177   1.406       .  S
C1181      C1182   1.408       .  A
C1181      C1186   1.420       .  A
C1182      C1183   1.403       .  A
C1183      C1184   1.414       .  A
C1184      C1185   1.401       .  A
C1185      C1186   1.400       .  A
C1185      H1192   1.084       .  S
C1186      S1188   1.800       .  S
S1188      H2381   1.407       .  S
H1189      S2380   1.407       .  S
C1193      C1194   1.406       .  A
C1193      C1198   1.401       .  A
C1193      C1780   1.486       .  S
C1194      C1195   1.413       .  A
C1194      H1199   1.082       .  S
C1195      C1196   1.406       .  A
C1195      C1768   1.497       .  S
C1196      C1197   1.397       .  A
C1196      H1200   1.080       .  S
C1197      C1198   1.402       .  A
C1197      C1753   1.480       .  S
C1198      H1201   1.084       .  S
C1202      C1203   1.400       .  A
C1202      C1207   1.402       .  A
C1202      C1720   1.491       .  S
C1203      C1204   1.412       .  A
C1203      H1208   1.080       .  S
C1204      C1205   1.408       .  A
C1204      C1741   1.506       .  S
C1205      C1206   1.407       .  A
C1205      H1209   1.068       .  S
C1206      C1207   1.407       .  A
C1206      C1729   1.506       .  S
C1207      H1210   1.082       .  S
C1211      C1212   1.405       .  A
C1211      C1216   1.404       .  A
C1211      C1684   1.485       .  S
C1212      C1213   1.407       .  A
C1212      H1217   1.082       .  S
C1213      C1214   1.404       .  A
C1213      C1708   1.492       .  S
C1214      C1215   1.399       .  A
C1214      H1218   1.083       .  S
C1215      C1216   1.405       .  A
C1215      C1696   1.492       .  S
C1216      H1219   1.082       .  S
C1220      C1221   1.410       .  A
C1220      C1225   1.406       .  A
C1220      C1645   1.485       .  S
C1221      C1222   1.406       .  A
C1221      H1226   1.083       .  S
C1222      C1223   1.399       .  A
C1222      C1669   1.484       .  S
C1223      C1224   1.396       .  A
C1223      H1227   1.085       .  S
C1224      C1225   1.401       .  A
C1224      C1657   1.476       .  S
C1225      H1228   1.084       .  S
C1229      C1230   1.411       .  A
C1229      C1234   1.410       .  A
C1229      C1633   1.495       .  S
C1230      C1231   1.411       .  A
C1230      H1235   1.081       .  S
C1231      C1232   1.402       .  A
C1231      C1624   1.498       .  S
C1232      C1233   1.395       .  A
C1232      H1236   1.083       .  S
C1233      C1234   1.400       .  A
C1233      C1612   1.476       .  S
C1234      H1237   1.082       .  S
C1238      C1239   1.374       .  D
C1238      C1705   1.504   1_556  S
C1238      C2361   1.507       .  S
C1239      C1609   1.500   1_556  S
C1239      C2268   1.494       .  S
C1240      C1241   1.411       .  A
C1240      C1245   1.408       .  A
C1240      C1573   1.486       .  S
C1241      C1242   1.405       .  A
C1241      H1246   1.083       .  S
C1242      C1243   1.398       .  A
C1242      C1600   1.481       .  S
C1243      C1244   1.397       .  A
C1243      H1247   1.085       .  S
C1244      C1245   1.402       .  A
C1244      C1585   1.478       .  S
C1245      H1248   1.084       .  S
C1249      C1250   1.370       .  D
C1249      C1597   1.495   1_556  S
C1250      C1621   1.498   1_556  S
C1251      C1252   1.371       .  D
C1251      C1588   1.495   1_556  S
C1251      C1660   1.491       .  S
C1252      C1693   1.503   1_556  S
C1252      C1732   1.502       .  S
O1253     Cr1271   2.012       .  S
O1254     Cr1271   1.985       .  S
O1254      C1255   1.261       .  A
C1255      C1648   1.485       .  S
C1255      O1852   1.264       .  A
O1256     Cr1272   2.000       .  S
O1256      C1851   1.264       .  A
O1257     Cr1272   1.985       .  S
C1258      C1717   1.484       .  S
C1258      O1259   1.266       .  A
O1259     Cr1273   2.008       .  S
O1260     Cr1273   1.979       .  S
O1260      C1857   1.261       .  A
C1261      C1777   1.493       .  S
C1261      O1856   1.261   1_545  A
O1262     Cr1271   1.977       .  S
O1263     Cr1271   2.017       .  S
O1263      C1264   1.268       .  A
C1264      C1549   1.479       .  S
C1264      O1861   1.261   1_545  A
O1265     Cr1272   1.980       .  S
O1265      C1860   1.261       .  A
O1266     Cr1272   2.007       .  S
C1267      C1537   1.474       .  S
C1267      O1268   1.257       .  A
O1268     Cr1273   1.975       .  S
O1269     Cr1273   1.999       .  S
O1269      C1866   1.264       .  A
C1270      C1564   1.469       .  S
C1270      O1865   1.264       .  A
Cr1271     O1870   1.777   1_545  S
Cr1272     O1274   1.777       .  S
O1274     Cr1867   1.777       .  S
C1275      C1276   1.411       .  A
C1275      C1280   1.406       .  A
C1275      C1561   1.485       .  S
C1276      C1277   1.407       .  A
C1276      H1281   1.083       .  S
C1277      C1278   1.401       .  A
C1277      C1525   1.491       .  S
C1278      C1279   1.396       .  A
C1278      H1282   1.083       .  S
C1279      C1280   1.398       .  A
C1279      C1516   1.477       .  S
C1280      H1283   1.083       .  S
C1284      C1285   1.411       .  A
C1284      C1289   1.405       .  A
C1284      C1480   1.486       .  S
C1285      C1286   1.408       .  A
C1285      H1290   1.083       .  S
C1286      C1287   1.402       .  A
C1286      C1501   1.495       .  S
C1287      C1288   1.398       .  A
C1287      H1291   1.082       .  S
C1288      C1289   1.400       .  A
C1288      C1489   1.480       .  S
C1289      H1292   1.083       .  S
C1293      C1294   1.411       .  A
C1293      C1298   1.415       .  A
C1293      C1552   1.500       .  S
C1294      C1295   1.400       .  A
C1294      H1299   1.083       .  S
C1295      C1296   1.402       .  A
C1295      C1465   1.486       .  S
C1296      C1297   1.404       .  A
C1296      H1300   1.077       .  S
C1297      C1298   1.417       .  A
C1297      C1453   1.515       .  S
C1298      H1301   1.081       .  S
C1302      C1303   1.406       .  A
C1302      C1307   1.405       .  A
C1302      C1444   1.489       .  S
C1303      C1304   1.417       .  A
C1303      H1308   1.077       .  S
C1304      C1305   1.408       .  A
C1304      C1429   1.521       .  S
C1305      C1306   1.405       .  A
C1305      H1309   1.077       .  S
C1306      C1307   1.407       .  A
C1306      C1417   1.502       .  S
C1307      H1310   1.081       .  S
C1311      C1312   1.376       .  D
C1311      C1420   1.503       .  S
C1312      C1405   1.496       .  S
C1313      C1314   1.382       .  D
C1313      C1504   1.515       .  S
C1313      C2124   1.513       .  S
C1314      C1432   1.494       .  S
C1314      C2052   1.493       .  S
C1315      C1316   1.402       .  A
C1315      C1320   1.411       .  A
C1315      C1381   1.496       .  S
C1316      C1317   1.395       .  A
C1316      H1321   1.084       .  S
C1317      C1318   1.397       .  A
C1317      C1408   1.475       .  S
C1318      C1319   1.407       .  A
C1318      H1322   1.075       .  S
C1319      C1320   1.422       .  A
C1319      C1372   1.516       .  S
C1320      H1323   1.078       .  S
C1324      C1325   1.416       .  A
C1324      C1329   1.407       .  A
C1324      C1540   1.496       .  S
C1325      C1326   1.415       .  A
C1325      H1330   1.080       .  S
C1326      C1327   1.408       .  A
C1326      C1396   1.511       .  S
C1327      C1328   1.396       .  A
C1327      H1331   1.080       .  S
C1328      C1329   1.399       .  A
C1328      C1357   1.487       .  S
C1329      H1332   1.083       .  S
C1333      C1334   1.372       .  D
C1333      C1360   1.499       .  S
C1333      C1492   1.498       .  S
C1334      C1369   1.502       .  S
C1334      C1468   1.507       .  S
O1335     Cr1949   2.007       .  S
O1335      C1343   1.266       .  A
O1336     Cr1353   1.995       .  S
O1336      C1337   1.262       .  A
C1337      C1576   1.490       .  S
C1337      O1338   1.261       .  A
O1339     Cr1950   1.981       .  S
O1339      C1340   1.261       .  A
C1340      C1681   1.489       .  S
C1340      O1341   1.266       .  A
O1341     Cr1355   2.005       .  S
O1342      C1343   1.262       .  A
C1343      C1636   1.480       .  S
O1344     Cr1949   1.994       .  S
O1344      C1352   1.263       .  A
O1345     Cr1353   2.011       .  S
O1345      C1346   1.267       .  A
C1346      C1384   1.481       .  S
C1346      O1347   1.262       .  A
O1348     Cr1950   1.995       .  S
O1348      C1349   1.262       .  A
C1349      C1477   1.487       .  S
C1349      O1350   1.264       .  A
O1350     Cr1355   1.995       .  S
O1351      C1352   1.263       .  A
C1352      C1441   1.488       .  S
Cr1353     O1931   2.007   1_545  S
Cr1353     O1940   1.994   1_545  S
Cr1353     O1952   1.781   1_545  S
Cr1354     O1935   1.981   1_545  S
Cr1354     O1944   1.995   1_545  S
O1356     Cr1949   1.781       .  S
C1357      C1358   1.402       .  A
C1357      C1362   1.415       .  A
C1358      C1359   1.393       .  A
C1358      H1367   1.084       .  S
C1359      C1360   1.414       .  A
C1359      S1363   1.794       .  S
C1360      C1361   1.405       .  A
C1361      C1362   1.402       .  A
C1361      H1368   1.074       .  S
C1362      S1364   1.804       .  S
S1363      H1366   1.407       .  S
S1364      H1365   1.406       .  S
C1369      C1370   1.400       .  A
C1369      C1374   1.418       .  A
C1370      C1371   1.403       .  A
C1370      H1379   1.083       .  S
C1371      C1372   1.428       .  A
C1371      S1375   1.805       .  S
C1372      C1373   1.408       .  A
C1373      C1374   1.395       .  A
C1373      H1380   1.077       .  S
C1374      S1376   1.806       .  S
S1375      H1378   1.408       .  S
S1376      H1377   1.394       .  S
C1381      C1382   1.406       .  A
C1381      C1386   1.420       .  A
C1382      C1383   1.399       .  A
C1382      H1391   1.083       .  S
C1383      C1384   1.414       .  A
C1384      C1385   1.403       .  A
C1385      C1386   1.403       .  A
C1385      H1392   1.084       .  S
C1386      S1388   1.804       .  S
S1387      H1390   1.399       .  S
S1388      H1389   1.407       .  S
C1393      C1394   1.405       .  A
C1393      C1398   1.413       .  A
C1394      C1395   1.396       .  A
C1394      H1403   1.084   1_655  S
C1395      C1396   1.420       .  A
C1395      S1399   1.791   1_655  S
C1396      C1397   1.415       .  A
C1397      C1398   1.398       .  A
C1397      H1404   1.082       .  S
C1398      S1400   1.798       .  S
S1399      H1402   1.407   1_455  S
S1400      H1401   1.404       .  S
C1405      C1406   1.411       .  A
C1405      C1410   1.419       .  A
C1406      C1407   1.389       .  A
C1406      H1415   1.084       .  S
C1407      C1408   1.406       .  A
C1407      S1411   1.806       .  S
C1408      C1409   1.405       .  A
C1409      C1410   1.403       .  A
C1409      H1416   1.084       .  S
C1410      S1412   1.806       .  S
S1411      H1414   1.406       .  S
S1412      H1413   1.397       .  S
C1417      C1418   1.412       .  A
C1417      C1422   1.415       .  A
C1418      C1419   1.398       .  A
C1418      H1427   1.080       .  S
C1419      C1420   1.413       .  A
C1419      S1423   1.803       .  S
C1420      C1421   1.410       .  A
C1421      C1422   1.400       .  A
C1422      S1424   1.803       .  S
S1423      H1426   1.405       .  S
S1424      H1425   1.407       .  S
C1429      C1430   1.415       .  A
C1429      C1434   1.427       .  A
C1430      C1431   1.402       .  A
C1430      H1439   1.076       .  S
C1431      C1432   1.413       .  A
C1431      S2031   1.800       .  S
C1432      C1433   1.397       .  A
C1433      C1434   1.394       .  A
C1433      H1440   1.084       .  S
C1434      S1436   1.804       .  S
S1435      C2027   1.800   1_545  S
S1435      H1438   1.402       .  S
S1436      H1437   1.408       .  S
C1441      C1442   1.408       .  A
C1441      C1446   1.414       .  A
C1442      C1443   1.402       .  A
C1442      H1451   1.082       .  S
C1443      C1444   1.411       .  A
C1443      S1447   1.803       .  S
C1444      C1445   1.407       .  A
C1445      C1446   1.404       .  A
C1445      H1452   1.084       .  S
C1446      S1448   1.803       .  S
S1447      H1450   1.406       .  S
S1448      H1449   1.407       .  S
C1453      C1454   1.416       .  A
C1453      C1458   1.430       .  A
C1454      C1455   1.407       .  A
C1454      H1463   1.082       .  S
C1455      C1456   1.410       .  A
C1455      S2055   1.801   1_545  S
C1456      C1457   1.391       .  A
C1456      C1910   1.493   1_545  S
C1457      C1458   1.391       .  A
C1457      H1464   1.078       .  S
C1458      S1460   1.805       .  S
S1459      C2051   1.801       .  S
S1459      H1462   1.400       .  S
S1460      H1461   1.408       .  S
C1465      C1466   1.402       .  A
C1465      C1470   1.404       .  A
C1466      C1467   1.415       .  A
C1466      H1475   1.082       .  S
C1467      C1468   1.423       .  A
C1467      S1471   1.802       .  S
C1468      C1469   1.400       .  A
C1469      C1470   1.391       .  A
C1469      H1476   1.063       .  S
C1470      S1472   1.808       .  S
S1471      H1474   1.407       .  S
S1472      H1473   1.407       .  S
C1477      C1478   1.404       .  A
C1477      C1482   1.420       .  A
C1478      C1479   1.404       .  A
C1478      H1487   1.084       .  S
C1479      C1480   1.418       .  A
C1479      S1483   1.804       .  S
C1480      C1481   1.399       .  A
C1481      C1482   1.395       .  A
C1481      H1488   1.084       .  S
C1482      S1484   1.802       .  S
S1483      H1486   1.406       .  S
S1484      H1485   1.400       .  S
C1489      C1490   1.400       .  A
C1489      C1494   1.414       .  A
C1490      C1491   1.391       .  A
C1490      H1499   1.084       .  S
C1491      C1492   1.414       .  A
C1491      S1495   1.796       .  S
C1492      C1493   1.406       .  A
C1493      C1494   1.401       .  A
C1493      H1500   1.079       .  S
C1494      S1496   1.803       .  S
S1495      H1498   1.400       .  S
S1496      H1497   1.406       .  S
C1501      C1502   1.404       .  A
C1501      C1506   1.415       .  A
C1502      C1503   1.403       .  A
C1502      H1511   1.083       .  S
C1503      C1504   1.423       .  A
C1503      S1507   1.804       .  S
C1504      C1505   1.406       .  A
C1505      C1506   1.394       .  A
C1505      H1512   1.069       .  S
C1506      S1508   1.807       .  S
S1507      H2106   1.405       .  S
S1508      H1509   1.407       .  S
H1510      S2103   1.405       .  S
C1513      C1514   1.407       .  A
C1513      C1518   1.418       .  A
C1514      C1515   1.401       .  A
C1514      H1523   1.083       .  S
C1515      C1516   1.413       .  A
C1515      S1519   1.802       .  S
C1516      C1517   1.398       .  A
C1517      C1518   1.389       .  A
C1517      H1524   1.084       .  S
C1518      S1520   1.800       .  S
S1519      H1522   1.406       .  S
S1520      H1521   1.399       .  S
C1525      C1526   1.404       .  A
C1525      C1530   1.413       .  A
C1526      C1527   1.403   1_545  A
C1526      H1535   1.083       .  S
C1527      C1528   1.422   1_565  A
C1527      S2127   1.804       .  S
C1528      C1529   1.406       .  A
C1528      C1909   1.513   1_545  S
C1529      C1530   1.392       .  A
C1529      H1536   1.071       .  S
C1530      S1532   1.807       .  S
S1531      C2123   1.804       .  S
S1531      H1534   1.405       .  S
S1532      H1533   1.407       .  S
C1537      C1538   1.400       .  A
C1537      C1542   1.416       .  A
C1538      C1539   1.397       .  A
C1539      C1540   1.416       .  A
C1540      C1541   1.408       .  A
C1541      C1542   1.402       .  A
C1541      H1548   1.083       .  S
C1542      S1544   1.807       .  S
S1544      H1545   1.398       .  S
C1549      C1550   1.401       .  A
C1549      C1554   1.410       .  A
C1550      C1551   1.407       .  A
C1550      H2155   1.083       .  S
C1551      C1552   1.421       .  A
C1551      S1555   1.809       .  S
C1552      C1553   1.409       .  A
C1553      C1554   1.403       .  A
C1553      H1560   1.083       .  S
C1554      S1556   1.802       .  S
S1555      H1558   1.407       .  S
S1556      H1557   1.406       .  S
H1559      C2146   1.083       .  S
C1561      C1562   1.406       .  A
C1561      C1566   1.417       .  A
C1562      C1563   1.398       .  A
C1562      H1571   1.084       .  S
C1563      C1564   1.409       .  A
C1563      S2163   1.802   1_545  S
C1564      C1565   1.400       .  A
C1565      C1566   1.399       .  A
C1565      H1572   1.083       .  S
C1566      S1568   1.803       .  S
S1567      C2159   1.802       .  S
S1567      H1570   1.407       .  S
S1568      H1569   1.407       .  S
C1573      C1574   1.407       .  A
C1573      C1578   1.411       .  A
C1574      C1575   1.404       .  A
C1574      H1583   1.084       .  S
C1575      C1576   1.415       .  A
C1575      S1579   1.800       .  S
C1576      C1577   1.408       .  A
C1577      C1578   1.397       .  A
C1577      H1584   1.082       .  S
C1578      S1580   1.805       .  S
S1579      H1582   1.407       .  S
S1580      H1581   1.406       .  S
C1585      C1586   1.404       .  A
C1585      C1590   1.412       .  A
C1586      C1587   1.405       .  A
C1586      H1595   1.084       .  S
C1587      C1588   1.419       .  A
C1587      S1591   1.801       .  S
C1588      C1589   1.402       .  A
C1589      C1590   1.385       .  A
C1589      H1596   1.083   1_554  S
C1590      S1592   1.804   1_554  S
S1591      H1594   1.403       .  S
S1592      H1593   1.407   1_556  S
C1597      C1598   1.410       .  A
C1597      C1602   1.410   1_554  A
C1598      C1599   1.403       .  A
C1598      H1607   1.080       .  S
C1599      C1600   1.411       .  A
C1599      S1603   1.802       .  S
C1600      C1601   1.402       .  A
C1601      C1602   1.390   1_554  A
C1601      H1608   1.080       .  S
C1602      S1604   1.800       .  S
S1603      H1606   1.406       .  S
S1604      H1605   1.402       .  S
C1609      C1610   1.413       .  A
C1609      C1614   1.418       .  A
C1610      C1611   1.407       .  A
C1610      H1619   1.083       .  S
C1611      C1612   1.410       .  A
C1611      S1615   1.803       .  S
C1612      C1613   1.399       .  A
C1613      C1614   1.387       .  A
C1613      H1620   1.085       .  S
C1614      S1616   1.805   1_554  S
S1615      H1618   1.404       .  S
S1616      H1617   1.401       .  S
C1621      C1622   1.407       .  A
C1621      C1626   1.408       .  A
C1622      C1623   1.399       .  A
C1623      C1624   1.416       .  A
C1623      S1627   1.803       .  S
C1624      C1625   1.412       .  A
C1625      C1626   1.394       .  A
C1625      H1632   1.082       .  S
C1626      S1628   1.795   1_554  S
S1627      H1630   1.407       .  S
S1628      H1629   1.401       .  S
C1633      C1634   1.408       .  A
C1633      C1638   1.417       .  A
C1634      C1635   1.400       .  A
C1634      H1643   1.084       .  S
C1635      C1636   1.413       .  A
C1635      S1639   1.803       .  S
C1636      C1637   1.403       .  A
C1637      C1638   1.402       .  A
C1637      H1644   1.082       .  S
C1638      S1640   1.804       .  S
S1639      H1642   1.400       .  S
S1640      H1641   1.407       .  S
C1645      C1646   1.406       .  A
C1645      C1650   1.412       .  A
C1646      C1647   1.403       .  A
C1646      H1655   1.084       .  S
C1647      C1648   1.415       .  A
C1647      S1651   1.803       .  S
C1648      C1649   1.406       .  A
C1649      C1650   1.398       .  A
C1649      H1656   1.084       .  S
C1650      S1652   1.804       .  S
S1651      H1654   1.408       .  S
S1652      H1653   1.406       .  S
C1657      C1658   1.403       .  A
C1657      C1662   1.413       .  A
C1658      C1659   1.402       .  A
C1658      H1667   1.084       .  S
C1659      C1660   1.418       .  A
C1659      S1663   1.801       .  S
C1660      C1661   1.400       .  A
C1661      C1662   1.387       .  A
C1661      H1668   1.084   1_556  S
C1662      S1664   1.804   1_556  S
S1663      H1666   1.402       .  S
S1664      H1665   1.407   1_554  S
C1669      C1670   1.403       .  A
C1669      C1674   1.414       .  A
C1670      C1671   1.387       .  A
C1670      H1679   1.079       .  S
C1671      C1672   1.410       .  A
C1671      S1675   1.804   1_556  S
C1672      C1673   1.409       .  A
C1672      C1835   1.494   1_545  S
C1673      C1674   1.404       .  A
C1673      H1680   1.083   1_545  S
C1674      S1676   1.802       .  S
S1675      H1678   1.407       .  S
S1676      H1677   1.406       .  S
C1681      C1682   1.409       .  A
C1681      C1686   1.416       .  A
C1682      C1683   1.398       .  A
C1682      H1691   1.083       .  S
C1683      C1684   1.411       .  A
C1683      S1687   1.805       .  S
C1684      C1685   1.406       .  A
C1685      C1686   1.402       .  A
C1685      H1692   1.084       .  S
C1686      S1688   1.803       .  S
S1687      H1690   1.407       .  S
S1688      H2285   1.408       .  S
H1689      S2284   1.408   1_565  S
C1693      C1694   1.406       .  A
C1693      C1698   1.420       .  A
C1694      C1695   1.397       .  A
C1694      H1703   1.081       .  S
C1695      C1696   1.419       .  A
C1695      S1699   1.805       .  S
C1696      C1697   1.403       .  A
C1697      C1698   1.394       .  A
C1697      H1704   1.082       .  S
C1698      S1700   1.805       .  S
S1699      H1702   1.407       .  S
S1700      H1701   1.404       .  S
C1705      C1706   1.410       .  A
C1705      C1710   1.418       .  A
C1706      C1707   1.400       .  A
C1706      H1715   1.082       .  S
C1707      C1708   1.413       .  A
C1707      S1711   1.810       .  S
C1708      C1709   1.408       .  A
C1709      C1710   1.396       .  A
C1709      H1716   1.083       .  S
C1710      S1712   1.803       .  S
S1711      H1714   1.407       .  S
S1712      H1713   1.394   1_554  S
C1717      C1718   1.406       .  A
C1717      C1722   1.414       .  A
C1718      C1719   1.406       .  A
C1719      C1720   1.419       .  A
C1720      C1721   1.401       .  A
C1721      C1722   1.392       .  A
C1721      H1728   1.084       .  S
C1722      S1724   1.797       .  S
S1724      H1725   1.406       .  S
C1729      C1730   1.409       .  A
C1729      C1734   1.422       .  A
C1730      C1731   1.390       .  A
C1730      H1739   1.080       .  S
C1731      C1732   1.413       .  A
C1731      S1735   1.807       .  S
C1732      C1733   1.407       .  A
C1733      C1734   1.405       .  A
C1733      H1740   1.080       .  S
C1734      S1736   1.809       .  S
S1735      H1738   1.402       .  S
S1736      H1737   1.407       .  S
C1741      C1742   1.408       .  A
C1741      C1746   1.424       .  A
C1742      C1743   1.394   1_655  A
C1742      H1751   1.081       .  S
C1743      C1744   1.416   1_455  A
C1743      S1747   1.803       .  S
C1744      C1745   1.402       .  A
C1745      C1746   1.400       .  A
C1745      H1752   1.083   1_556  S
C1746      S1748   1.805   1_556  S
S1747      H1750   1.393       .  S
S1748      H1749   1.407       .  S
C1753      C1754   1.399       .  A
C1753      C1758   1.410       .  A
C1754      C1755   1.400       .  A
C1754      H1763   1.083       .  S
C1755      C1756   1.419       .  A
C1755      S1759   1.796   1_655  S
C1756      C1757   1.409       .  A
C1757      C1758   1.398       .  A
C1757      H1764   1.083   1_556  S
C1758      S1760   1.804   1_556  S
S1759      H1762   1.406   1_455  S
S1760      H1761   1.406   1_554  S
C1765      C1766   1.406       .  A
C1765      C1770   1.415   1_545  A
C1765      C1834   1.507   1_545  S
C1766      C1767   1.398       .  A
C1766      H1775   1.081       .  S
C1767      C1768   1.420       .  A
C1767      S1771   1.805       .  S
C1768      C1769   1.405       .  A
C1769      C1770   1.395   1_545  A
C1769      H1776   1.082       .  S
C1770      S2368   1.797       .  S
S1771      H1774   1.407       .  S
S1772      C2366   1.797       .  S
S1772      H1773   1.406       .  S
C1777      C1778   1.408       .  A
C1777      C1782   1.420       .  A
C1778      C1779   1.403       .  A
C1778      H2383   1.084   1_545  S
C1779      C1780   1.414       .  A
C1779      S2379   1.804       .  S
C1780      C1781   1.401       .  A
C1781      C1782   1.400       .  A
C1781      H1788   1.084       .  S
C1782      S1784   1.800       .  S
S1783      C2375   1.804       .  S
S1783      H2382   1.406       .  S
H1786      S2379   1.406       .  S
H1787      C2374   1.083       .  S
C1789      C1790   1.406       .  A
C1789      C1794   1.401       .  A
C1789      C2376   1.486       .  S
C1790      C1791   1.413       .  A
C1790      H1795   1.082       .  S
C1791      C1792   1.406       .  A
C1791      C2364   1.497       .  S
C1792      C1793   1.397       .  A
C1792      H1796   1.080       .  S
C1793      C1794   1.402       .  A
C1793      C2349   1.480       .  S
C1794      H1797   1.084       .  S
C1798      C1799   1.400       .  A
C1798      C1803   1.402       .  A
C1798      C2316   1.491       .  S
C1799      C1800   1.412       .  A
C1799      H1804   1.080       .  S
C1800      C1801   1.408       .  A
C1800      C2337   1.506       .  S
C1801      C1802   1.407       .  A
C1801      H1805   1.068       .  S
C1802      C1803   1.407       .  A
C1802      C2325   1.506       .  S
C1803      H1806   1.082       .  S
C1807      C1808   1.405       .  A
C1807      C1812   1.404       .  A
C1807      C2280   1.485       .  S
C1808      C1809   1.407       .  A
C1808      H1813   1.082       .  S
C1809      C1810   1.404       .  A
C1809      C2304   1.492       .  S
C1810      C1811   1.399       .  A
C1810      H1814   1.083       .  S
C1811      C1812   1.405       .  A
C1811      C2292   1.492       .  S
C1812      H1815   1.082       .  S
C1816      C1817   1.410       .  A
C1816      C1821   1.406       .  A
C1816      C2241   1.485       .  S
C1817      C1818   1.406       .  A
C1817      H1822   1.083       .  S
C1818      C1819   1.399       .  A
C1818      C2265   1.484       .  S
C1819      C1820   1.396       .  A
C1819      H1823   1.085       .  S
C1820      C1821   1.401       .  A
C1820      C2253   1.476       .  S
C1821      H1824   1.084       .  S
C1825      C1826   1.411       .  A
C1825      C1830   1.410       .  A
C1825      C2229   1.495       .  S
C1826      C1827   1.411       .  A
C1826      H1831   1.081       .  S
C1827      C1828   1.402       .  A
C1827      C2220   1.498       .  S
C1828      C1829   1.395       .  A
C1828      H1832   1.083       .  S
C1829      C1830   1.400       .  A
C1829      C2208   1.476       .  S
C1830      H1833   1.082       .  S
C1834      C1835   1.374       .  D
C1834      C2301   1.504   1_556  S
C1835      C2205   1.500   1_556  S
C1836      C1837   1.411       .  A
C1836      C1841   1.408       .  A
C1836      C2169   1.486       .  S
C1837      C1838   1.405       .  A
C1837      H1842   1.083       .  S
C1838      C1839   1.398       .  A
C1838      C2196   1.481       .  S
C1839      C1840   1.397       .  A
C1839      H1843   1.085       .  S
C1840      C1841   1.402       .  A
C1840      C2181   1.478       .  S
C1841      H1844   1.084       .  S
C1845      C1846   1.370       .  D
C1845      C2193   1.495   1_556  S
C1846      C2217   1.498   1_556  S
C1847      C1848   1.371       .  D
C1847      C2184   1.495   1_556  S
C1847      C2256   1.491       .  S
C1848      C2289   1.503   1_556  S
C1848      C2328   1.502       .  S
O1849     Cr1867   2.012       .  S
O1850     Cr1867   1.985       .  S
O1850      C1851   1.261       .  A
C1851      C2244   1.485       .  S
O1852     Cr1868   2.000   1_545  S
O1853     Cr1868   1.985       .  S
C1854      C2313   1.484       .  S
C1854      O1855   1.266       .  A
O1855     Cr1869   2.008       .  S
O1856     Cr1869   1.979       .  S
C1857      C2373   1.493       .  S
O1858     Cr1867   1.977       .  S
O1859     Cr1867   2.017       .  S
O1859      C1860   1.268       .  A
C1860      C2145   1.479       .  S
O1861     Cr1868   1.980       .  S
O1862     Cr1868   2.007       .  S
C1863      C2133   1.474       .  S
C1863      O1864   1.257       .  A
O1864     Cr1869   1.975       .  S
O1865     Cr1869   1.999   1_545  S
C1866      C2160   1.469       .  S
Cr1868     O1870   1.777       .  S
C1871      C1872   1.411       .  A
C1871      C1876   1.406       .  A
C1871      C2157   1.485       .  S
C1872      C1873   1.407       .  A
C1872      H1877   1.083       .  S
C1873      C1874   1.401       .  A
C1873      C2121   1.491       .  S
C1874      C1875   1.396       .  A
C1874      H1878   1.083       .  S
C1875      C1876   1.398       .  A
C1875      C2112   1.477       .  S
C1876      H1879   1.083       .  S
C1880      C1881   1.411       .  A
C1880      C1885   1.405       .  A
C1880      C2076   1.486       .  S
C1881      C1882   1.408       .  A
C1881      H1886   1.083       .  S
C1882      C1883   1.402       .  A
C1882      C2097   1.495       .  S
C1883      C1884   1.398       .  A
C1883      H1887   1.082       .  S
C1884      C1885   1.400       .  A
C1884      C2085   1.480       .  S
C1885      H1888   1.083       .  S
C1889      C1890   1.411       .  A
C1889      C1894   1.415       .  A
C1889      C2148   1.500       .  S
C1890      C1891   1.400       .  A
C1890      H1895   1.083       .  S
C1891      C1892   1.402       .  A
C1891      C2061   1.486       .  S
C1892      C1893   1.404       .  A
C1892      H1896   1.077       .  S
C1893      C1894   1.417       .  A
C1893      C2049   1.515       .  S
C1894      H1897   1.081       .  S
C1898      C1899   1.406       .  A
C1898      C1903   1.405       .  A
C1898      C2040   1.489       .  S
C1899      C1900   1.417       .  A
C1899      H1904   1.077       .  S
C1900      C1901   1.408       .  A
C1900      C2025   1.521       .  S
C1901      C1902   1.405       .  A
C1901      H1905   1.077       .  S
C1902      C1903   1.407       .  A
C1902      C2013   1.502       .  S
C1903      H1906   1.081       .  S
C1907      C1908   1.376       .  D
C1907      C2016   1.503       .  S
C1908      C2001   1.496       .  S
C1909      C1910   1.382       .  D
C1909      C2100   1.515       .  S
C1910      C2028   1.494       .  S
C1911      C1912   1.402       .  A
C1911      C1916   1.411       .  A
C1911      C1977   1.496       .  S
C1912      C1913   1.395       .  A
C1912      H1917   1.084       .  S
C1913      C1914   1.397       .  A
C1913      C2004   1.475       .  S
C1914      C1915   1.407       .  A
C1914      H1918   1.075       .  S
C1915      C1916   1.422       .  A
C1915      C1968   1.516       .  S
C1916      H1919   1.078       .  S
C1920      C1921   1.416       .  A
C1920      C1925   1.407       .  A
C1920      C2136   1.496       .  S
C1921      C1922   1.415       .  A
C1921      H1926   1.080       .  S
C1922      C1923   1.408       .  A
C1922      C1992   1.511       .  S
C1923      C1924   1.396       .  A
C1923      H1927   1.080       .  S
C1924      C1925   1.399       .  A
C1924      C1953   1.487       .  S
C1925      H1928   1.083       .  S
C1929      C1930   1.372       .  D
C1929      C1956   1.499       .  S
C1929      C2088   1.498       .  S
C1930      C1965   1.502       .  S
C1930      C2064   1.507       .  S
O1931      C1939   1.266       .  A
O1932     Cr1949   1.995       .  S
O1932      C1933   1.262       .  A
C1933      C2172   1.490       .  S
C1933      O1934   1.261       .  A
O1935      C1936   1.261       .  A
C1936      C2277   1.489       .  S
C1936      O1937   1.266       .  A
O1937     Cr1951   2.005       .  S
O1938      C1939   1.262       .  A
C1939      C2232   1.480       .  S
O1940      C1948   1.263       .  A
O1941     Cr1949   2.011       .  S
O1941      C1942   1.267       .  A
C1942      C1980   1.481       .  S
C1942      O1943   1.262       .  A
O1944      C1945   1.262       .  A
C1945      C2073   1.487       .  S
C1945      O1946   1.264       .  A
O1946     Cr1951   1.995       .  S
O1947      C1948   1.263       .  A
C1948      C2037   1.488       .  S
C1953      C1954   1.402       .  A
C1953      C1958   1.415       .  A
C1954      C1955   1.393       .  A
C1954      H1963   1.084       .  S
C1955      C1956   1.414       .  A
C1955      S1959   1.794       .  S
C1956      C1957   1.405       .  A
C1957      C1958   1.402       .  A
C1957      H1964   1.074       .  S
C1958      S1960   1.804       .  S
S1959      H1962   1.407       .  S
S1960      H1961   1.406       .  S
C1965      C1966   1.400       .  A
C1965      C1970   1.418       .  A
C1966      C1967   1.403       .  A
C1966      H1975   1.083       .  S
C1967      C1968   1.428       .  A
C1967      S1971   1.805       .  S
C1968      C1969   1.408       .  A
C1969      C1970   1.395       .  A
C1969      H1976   1.077       .  S
C1970      S1972   1.806       .  S
S1971      H1974   1.408       .  S
S1972      H1973   1.394       .  S
C1977      C1978   1.406       .  A
C1977      C1982   1.420       .  A
C1978      C1979   1.399       .  A
C1978      H1987   1.083       .  S
C1979      C1980   1.414       .  A
C1980      C1981   1.403       .  A
C1981      C1982   1.403       .  A
C1981      H1988   1.084       .  S
C1982      S1984   1.804       .  S
S1983      H1986   1.399       .  S
S1984      H1985   1.407       .  S
C1989      C1990   1.405       .  A
C1989      C1994   1.413       .  A
C1990      C1991   1.396       .  A
C1990      H1999   1.084   1_655  S
C1991      C1992   1.420       .  A
C1991      S1995   1.791   1_655  S
C1992      C1993   1.415       .  A
C1993      C1994   1.398       .  A
C1993      H2000   1.082       .  S
C1994      S1996   1.798       .  S
S1995      H1998   1.407   1_455  S
S1996      H1997   1.404       .  S
C2001      C2002   1.411       .  A
C2001      C2006   1.419       .  A
C2002      C2003   1.389       .  A
C2002      H2011   1.084       .  S
C2003      C2004   1.406       .  A
C2003      S2007   1.806       .  S
C2004      C2005   1.405       .  A
C2005      C2006   1.403       .  A
C2005      H2012   1.084       .  S
C2006      S2008   1.806       .  S
S2007      H2010   1.406       .  S
S2008      H2009   1.397       .  S
C2013      C2014   1.412       .  A
C2013      C2018   1.415       .  A
C2014      C2015   1.398       .  A
C2014      H2023   1.080       .  S
C2015      C2016   1.413       .  A
C2015      S2019   1.803       .  S
C2016      C2017   1.410       .  A
C2017      C2018   1.400       .  A
C2018      S2020   1.803       .  S
S2019      H2022   1.405       .  S
S2020      H2021   1.407       .  S
C2025      C2026   1.415       .  A
C2025      C2030   1.427       .  A
C2026      C2027   1.402       .  A
C2026      H2035   1.076       .  S
C2027      C2028   1.413       .  A
C2028      C2029   1.397       .  A
C2029      C2030   1.394       .  A
C2029      H2036   1.084       .  S
C2030      S2032   1.804       .  S
S2031      H2034   1.402       .  S
S2032      H2033   1.408       .  S
C2037      C2038   1.408       .  A
C2037      C2042   1.414       .  A
C2038      C2039   1.402       .  A
C2038      H2047   1.082       .  S
C2039      C2040   1.411       .  A
C2039      S2043   1.803       .  S
C2040      C2041   1.407       .  A
C2041      C2042   1.404       .  A
C2041      H2048   1.084       .  S
C2042      S2044   1.803       .  S
S2043      H2046   1.406       .  S
S2044      H2045   1.407       .  S
C2049      C2050   1.416       .  A
C2049      C2054   1.430       .  A
C2050      C2051   1.407       .  A
C2050      H2059   1.082       .  S
C2051      C2052   1.410       .  A
C2052      C2053   1.391       .  A
C2053      C2054   1.391       .  A
C2053      H2060   1.078       .  S
C2054      S2056   1.805       .  S
S2055      H2058   1.400       .  S
S2056      H2057   1.408       .  S
C2061      C2062   1.402       .  A
C2061      C2066   1.404       .  A
C2062      C2063   1.415       .  A
C2062      H2071   1.082       .  S
C2063      C2064   1.423       .  A
C2063      S2067   1.802       .  S
C2064      C2065   1.400       .  A
C2065      C2066   1.391       .  A
C2065      H2072   1.063       .  S
C2066      S2068   1.808       .  S
S2067      H2070   1.407       .  S
S2068      H2069   1.407       .  S
C2073      C2074   1.404       .  A
C2073      C2078   1.420       .  A
C2074      C2075   1.404       .  A
C2074      H2083   1.084       .  S
C2075      C2076   1.418       .  A
C2075      S2079   1.804       .  S
C2076      C2077   1.399       .  A
C2077      C2078   1.395       .  A
C2077      H2084   1.084       .  S
C2078      S2080   1.802       .  S
S2079      H2082   1.406       .  S
S2080      H2081   1.400       .  S
C2085      C2086   1.400       .  A
C2085      C2090   1.414       .  A
C2086      C2087   1.391       .  A
C2086      H2095   1.084       .  S
C2087      C2088   1.414       .  A
C2087      S2091   1.796       .  S
C2088      C2089   1.406       .  A
C2089      C2090   1.401       .  A
C2089      H2096   1.079       .  S
C2090      S2092   1.803       .  S
S2091      H2094   1.400       .  S
S2092      H2093   1.406       .  S
C2097      C2098   1.404       .  A
C2097      C2102   1.415       .  A
C2098      C2099   1.403       .  A
C2098      H2107   1.083       .  S
C2099      C2100   1.423       .  A
C2099      S2103   1.804   1_565  S
C2100      C2101   1.406       .  A
C2101      C2102   1.394       .  A
C2101      H2108   1.069       .  S
C2102      S2104   1.807       .  S
S2104      H2105   1.407       .  S
C2109      C2110   1.407       .  A
C2109      C2114   1.418       .  A
C2110      C2111   1.401       .  A
C2110      H2119   1.083       .  S
C2111      C2112   1.413       .  A
C2111      S2115   1.802       .  S
C2112      C2113   1.398       .  A
C2113      C2114   1.389       .  A
C2113      H2120   1.084       .  S
C2114      S2116   1.800       .  S
S2115      H2118   1.406       .  S
S2116      H2117   1.399       .  S
C2121      C2122   1.404       .  A
C2121      C2126   1.413       .  A
C2122      C2123   1.403       .  A
C2122      H2131   1.083       .  S
C2123      C2124   1.422       .  A
C2124      C2125   1.406       .  A
C2125      C2126   1.392       .  A
C2125      H2132   1.071       .  S
C2126      S2128   1.807       .  S
S2127      H2130   1.405       .  S
S2128      H2129   1.407       .  S
C2133      C2134   1.399       .  A
C2133      C2138   1.416       .  A
C2134      C2135   1.397       .  A
C2135      C2136   1.416       .  A
C2136      C2137   1.408       .  A
C2137      C2138   1.402       .  A
C2137      H2144   1.083       .  S
C2138      S2140   1.807       .  S
S2140      H2141   1.398       .  S
C2145      C2146   1.401       .  A
C2145      C2150   1.410       .  A
C2146      C2147   1.407       .  A
C2147      C2148   1.421       .  A
C2147      S2151   1.809       .  S
C2148      C2149   1.409       .  A
C2149      C2150   1.403       .  A
C2149      H2156   1.083       .  S
C2150      S2152   1.802       .  S
S2151      H2154   1.407       .  S
S2152      H2153   1.406       .  S
C2157      C2158   1.406       .  A
C2157      C2162   1.417       .  A
C2158      C2159   1.398       .  A
C2158      H2167   1.084       .  S
C2159      C2160   1.409       .  A
C2160      C2161   1.400       .  A
C2161      C2162   1.399       .  A
C2161      H2168   1.083       .  S
C2162      S2164   1.803       .  S
S2163      H2166   1.407       .  S
S2164      H2165   1.407       .  S
C2169      C2170   1.407       .  A
C2169      C2174   1.411       .  A
C2170      C2171   1.404       .  A
C2170      H2179   1.084       .  S
C2171      C2172   1.415       .  A
C2171      S2175   1.800       .  S
C2172      C2173   1.408       .  A
C2173      C2174   1.397       .  A
C2173      H2180   1.082       .  S
C2174      S2176   1.805       .  S
S2175      H2178   1.407       .  S
S2176      H2177   1.406       .  S
C2181      C2182   1.404       .  A
C2181      C2186   1.412       .  A
C2182      C2183   1.406       .  A
C2182      H2191   1.084       .  S
C2183      C2184   1.419       .  A
C2183      S2187   1.801       .  S
C2184      C2185   1.402       .  A
C2185      C2186   1.385       .  A
C2185      H2192   1.083   1_554  S
C2186      S2188   1.804   1_554  S
S2187      H2190   1.403       .  S
S2188      H2189   1.407   1_556  S
C2193      C2194   1.410       .  A
C2193      C2198   1.410   1_554  A
C2194      C2195   1.403       .  A
C2194      H2203   1.080       .  S
C2195      C2196   1.411       .  A
C2195      S2199   1.802       .  S
C2196      C2197   1.402       .  A
C2197      C2198   1.390   1_554  A
C2197      H2204   1.080       .  S
C2198      S2200   1.800       .  S
S2199      H2202   1.406       .  S
S2200      H2201   1.402       .  S
C2205      C2206   1.413       .  A
C2205      C2210   1.418       .  A
C2206      C2207   1.407       .  A
C2206      H2215   1.083       .  S
C2207      C2208   1.410       .  A
C2207      S2211   1.803       .  S
C2208      C2209   1.399       .  A
C2209      C2210   1.387       .  A
C2209      H2216   1.085       .  S
C2210      S2212   1.805   1_554  S
S2211      H2214   1.404       .  S
S2212      H2213   1.401       .  S
C2217      C2218   1.407       .  A
C2217      C2222   1.408       .  A
C2218      C2219   1.399       .  A
C2219      C2220   1.416       .  A
C2219      S2223   1.803       .  S
C2220      C2221   1.412       .  A
C2221      C2222   1.394       .  A
C2221      H2228   1.082       .  S
C2222      S2224   1.795   1_554  S
S2223      H2226   1.407       .  S
S2224      H2225   1.401       .  S
C2229      C2230   1.408       .  A
C2229      C2234   1.417       .  A
C2230      C2231   1.400       .  A
C2230      H2239   1.084       .  S
C2231      C2232   1.413       .  A
C2231      S2235   1.803       .  S
C2232      C2233   1.403       .  A
C2233      C2234   1.402       .  A
C2233      H2240   1.082       .  S
C2234      S2236   1.804       .  S
S2235      H2238   1.400       .  S
S2236      H2237   1.407       .  S
C2241      C2242   1.406       .  A
C2241      C2246   1.412       .  A
C2242      C2243   1.403       .  A
C2242      H2251   1.084       .  S
C2243      C2244   1.415       .  A
C2243      S2247   1.803       .  S
C2244      C2245   1.406       .  A
C2245      C2246   1.398       .  A
C2245      H2252   1.084       .  S
C2246      S2248   1.804       .  S
S2247      H2250   1.408       .  S
S2248      H2249   1.406       .  S
C2253      C2254   1.403       .  A
C2253      C2258   1.413       .  A
C2254      C2255   1.402       .  A
C2254      H2263   1.084       .  S
C2255      C2256   1.418       .  A
C2255      S2259   1.801       .  S
C2256      C2257   1.400       .  A
C2257      C2258   1.387       .  A
C2257      H2264   1.084   1_556  S
C2258      S2260   1.804   1_556  S
S2259      H2262   1.402       .  S
S2260      H2261   1.407   1_554  S
C2265      C2266   1.403       .  A
C2265      C2270   1.413       .  A
C2266      C2267   1.387       .  A
C2266      H2275   1.079       .  S
C2267      C2268   1.410       .  A
C2267      S2271   1.804   1_556  S
C2268      C2269   1.409       .  A
C2269      C2270   1.404       .  A
C2269      H2276   1.083       .  S
C2270      S2272   1.802       .  S
S2271      H2274   1.407       .  S
S2272      H2273   1.406       .  S
C2277      C2278   1.409       .  A
C2277      C2282   1.416       .  A
C2278      C2279   1.398       .  A
C2278      H2287   1.083       .  S
C2279      C2280   1.411       .  A
C2279      S2283   1.805       .  S
C2280      C2281   1.406       .  A
C2281      C2282   1.402       .  A
C2281      H2288   1.084       .  S
C2282      S2284   1.803   1_565  S
S2283      H2286   1.407       .  S
C2289      C2290   1.406       .  A
C2289      C2294   1.420       .  A
C2290      C2291   1.397       .  A
C2290      H2299   1.081       .  S
C2291      C2292   1.419       .  A
C2291      S2295   1.805       .  S
C2292      C2293   1.403       .  A
C2293      C2294   1.394       .  A
C2293      H2300   1.082       .  S
C2294      S2296   1.805       .  S
S2295      H2298   1.407       .  S
S2296      H2297   1.404       .  S
C2301      C2302   1.410       .  A
C2301      C2306   1.418       .  A
C2302      C2303   1.400       .  A
C2302      H2311   1.082   1_565  S
C2303      C2304   1.413       .  A
C2303      S2307   1.810       .  S
C2304      C2305   1.408       .  A
C2305      C2306   1.396       .  A
C2305      H2312   1.083       .  S
C2306      S2308   1.803       .  S
S2307      H2310   1.407   1_565  S
S2308      H2309   1.394   1_554  S
C2313      C2314   1.406       .  A
C2313      C2318   1.414       .  A
C2314      C2315   1.406       .  A
C2315      C2316   1.419       .  A
C2316      C2317   1.401       .  A
C2317      C2318   1.392       .  A
C2317      H2324   1.084       .  S
C2318      S2320   1.797       .  S
S2320      H2321   1.406       .  S
C2325      C2326   1.409       .  A
C2325      C2330   1.422       .  A
C2326      C2327   1.390       .  A
C2326      H2335   1.080       .  S
C2327      C2328   1.413       .  A
C2327      S2331   1.807       .  S
C2328      C2329   1.407       .  A
C2329      C2330   1.405       .  A
C2329      H2336   1.080       .  S
C2330      S2332   1.809       .  S
S2331      H2334   1.402       .  S
S2332      H2333   1.407       .  S
C2337      C2338   1.408       .  A
C2337      C2342   1.424       .  A
C2338      C2339   1.394   1_655  A
C2338      H2347   1.081       .  S
C2339      C2340   1.416   1_455  A
C2339      S2343   1.803       .  S
C2340      C2341   1.402       .  A
C2341      C2342   1.400       .  A
C2341      H2348   1.083   1_556  S
C2342      S2344   1.805   1_556  S
S2343      H2346   1.393       .  S
S2344      H2345   1.407       .  S
C2349      C2350   1.399       .  A
C2349      C2354   1.410       .  A
C2350      C2351   1.400       .  A
C2350      H2359   1.083       .  S
C2351      C2352   1.419       .  A
C2351      S2355   1.796   1_655  S
C2352      C2353   1.409       .  A
C2353      C2354   1.398       .  A
C2353      H2360   1.083   1_556  S
C2354      S2356   1.804   1_556  S
S2355      H2358   1.406   1_455  S
S2356      H2357   1.406   1_554  S
C2361      C2362   1.406       .  A
C2361      C2366   1.415       .  A
C2362      C2363   1.398       .  A
C2362      H2371   1.081       .  S
C2363      C2364   1.420       .  A
C2363      S2367   1.805       .  S
C2364      C2365   1.405       .  A
C2365      C2366   1.395       .  A
C2365      H2372   1.082       .  S
S2367      H2370   1.407       .  S
S2368      H2369   1.406       .  S
C2373      C2374   1.408       .  A
C2373      C2378   1.420       .  A
C2374      C2375   1.403       .  A
C2375      C2376   1.414       .  A
C2376      C2377   1.401       .  A
C2377      C2378   1.400       .  A
C2377      H2384   1.084       .  S
C2378      S2380   1.800       .  S
