geometry optimzed in LAMMPS
_audit_creation_date              2020-11-30 
_audit_creation_method            'lammps2cif' 
_symmetry_space_group_name_H-M    'P1' 
_symmetry_Int_Tables_number       1 
_symmetry_cell_setting            triclinic 
loop_ 
_symmetry_equiv_pos_as_xyz 
  x,y,z 
_cell_length_a                    32.54508807 
_cell_length_b                    33.009768108163804 
_cell_length_c                    31.48636219410287 
_cell_angle_alpha                 90.13543132905102 
_cell_angle_beta                  89.53592484919388 
_cell_angle_gamma                 90.02295032391689 
loop_ 
_atom_site_label 
_atom_site_type_symbol 
_atom_site_fract_x 
_atom_site_fract_y 
_atom_site_fract_z 
_atom_site_charge 
C1          C  0.53913795  0.01972856  0.98894698     0.01700
C2          C  0.53605082  0.97675025  0.32680506     0.01700
C3          C  0.49758695  0.95836609  0.33075495    -0.18800
C4          C  0.46170801  0.98114197  0.32661517     0.01700
C5          C  0.46428912  0.02352406  0.98471305     0.01700
C6          C  0.50290100  0.04260502  0.98434926    -0.18800
H7          H  0.50478808  0.07489230  0.97851432     0.03700
H8          H  0.49553965  0.92574356  0.33420604     0.03700
C9          C  0.82124238  0.87089227  0.28648436     0.85900
C10         C  0.84358986  0.89019093  0.32392323    -0.54300
C11         C  0.88499427  0.88410752  0.32398126     0.08900
C12         C  0.90097075  0.85891441  0.28594523     0.19800
C13         C  0.84383174  0.88855326  0.24756034    -0.55000
C14         C  0.88530670  0.88263051  0.24733340     0.09000
C15         C  0.83356052  0.82613201  0.28741622    -0.54600
C16         C  0.87503525  0.81966359  0.28682415     0.09500
H17         H  0.82789207  0.90826405  0.34796341     0.14100
H18         H  0.93474465  0.85404959  0.28582316    -0.00200
H19         H  0.82967625  0.90677373  0.22324841     0.14400
H20         H  0.81132691  0.80157801  0.28776998     0.14200
N21         N  0.08177635  0.94283830  0.16415598    -0.06700
N22         N  0.10962553  0.93446279  0.19332126    -0.58800
N23         N  0.04996638  0.91584815  0.06790440    -0.06300
N24         N  0.05618139  0.88834377  0.37159882    -0.60900
N25         N  0.07909749  0.94347635  0.06636680    -0.05900
N26         N  0.10570564  0.93538120  0.36844968    -0.58800
N27         N  0.05247105  0.91531887  0.16443872    -0.05600
N28         N  0.05997848  0.88749106  0.19317577    -0.61300
C29         C  0.09538503  0.89984977  0.21113205     0.95500
C30         C  0.09051943  0.90092485  0.35130777     0.95300
N31         N  0.92563632  0.94548188  0.07103091    -0.06800
N32         N  0.89783697  0.93909363  0.37528943    -0.59400
N33         N  0.95485126  0.91637884  0.16798670    -0.05000
N34         N  0.94632770  0.88946495  0.19800017    -0.60600
N35         N  0.92677305  0.94506479  0.16768821    -0.06900
N36         N  0.89871024  0.93832858  0.19705465    -0.59600
N37         N  0.95355190  0.91666725  0.06980749    -0.04600
N38         N  0.94544096  0.89018966  0.37271386    -0.60700
Mn39       Mn  0.00271165  0.91472580  0.11767208     1.18400
C40         C  0.91039858  0.90480976  0.35570211     0.97600
C41         C  0.91120562  0.90384229  0.21586650     0.98300
N42         N  0.07976901  0.03906140  0.06664382    -0.06900
N43         N  0.10600617  0.04798852  0.36849804    -0.63200
N44         N  0.05236743  0.06523180  0.16524579    -0.05700
N45         N  0.05881350  0.09268611  0.19452735    -0.63900
N46         N  0.08204652  0.03824382  0.16480939    -0.06400
N47         N  0.10953246  0.04689078  0.19434707    -0.63500
N48         N  0.05044944  0.06640096  0.06876511    -0.05300
N49         N  0.05599107  0.09437532  0.37266815    -0.64200
Mn50       Mn  0.08235690  0.99089097  0.11539979     1.10700
C51         C  0.09029431  0.08251973  0.35192005     0.98800
C52         C  0.09421210  0.08098799  0.21257565     0.98900
N53         N  0.92689892  0.04004449  0.16934970    -0.06400
N54         N  0.90018539  0.04873622  0.20007746    -0.61800
N55         N  0.95489886  0.06864262  0.07164260    -0.05700
N56         N  0.94831658  0.09750954  0.37692055    -0.58500
N57         N  0.92546255  0.04142370  0.07081124    -0.07000
N58         N  0.89820912  0.05109520  0.37481055    -0.61400
N59         N  0.95657793  0.06699484  0.16836975    -0.06000
N60         N  0.95077262  0.09464574  0.19787837    -0.58500
Mn61       Mn  0.92499038  0.99284343  0.11962287     1.20200
Mn62       Mn  0.00371335  0.06740982  0.11856896     1.10100
Cl63       Cl  0.00346142  0.99135835  0.11782716    -0.85300
C64         C  0.91584176  0.08286489  0.21769862     0.95800
C65         C  0.91298580  0.08620273  0.35824066     0.95600
C66         C  0.88221237  0.17341976  0.28493568     0.85900
C67         C  0.89953729  0.15251978  0.32457697    -0.54300
C68         C  0.89274236  0.11158011  0.32601743     0.08900
C69         C  0.86889824  0.09506629  0.28758660     0.19800
C70         C  0.90202762  0.14964608  0.24838236    -0.55000
C71         C  0.89506633  0.10900373  0.24920890     0.09000
C72         C  0.83676079  0.16186784  0.28415856    -0.54600
C73         C  0.82940710  0.12108943  0.28584760     0.09500
H74         H  0.91791561  0.16796420  0.34821682     0.14100
H75         H  0.86358539  0.06184128  0.28851701    -0.00200
H76         H  0.92140755  0.16369338  0.22432671     0.14400
H77         H  0.81239473  0.18433273  0.28355486     0.14200
C78         C  0.12940918  0.81328671  0.28254940     0.85900
C79         C  0.10679486  0.83493465  0.31917810    -0.54300
C80         C  0.11166844  0.87591027  0.31948762     0.08900
C81         C  0.13827446  0.89217895  0.28289255     0.19800
C82         C  0.11245725  0.83427252  0.24304116    -0.55000
C83         C  0.11687486  0.87536252  0.24300336     0.09000
C84         C  0.17407620  0.82721642  0.28554818    -0.54600
C85         C  0.17884209  0.86832333  0.28618519     0.09500
H86         H  0.08693854  0.82004547  0.34208319     0.14100
H87         H  0.14187317  0.92564993  0.28308774    -0.00200
H88         H  0.09626832  0.81815361  0.21812128     0.14400
H89         H  0.19967072  0.80629717  0.28836160     0.14200
C90         C  0.12227301  0.17124984  0.28093241     0.85900
C91         C  0.10730703  0.14778711  0.24223640    -0.54300
C92         C  0.11510710  0.10725844  0.24314783     0.08900
C93         C  0.13789166  0.09328951  0.28317917     0.19800
C94         C  0.10178922  0.14881100  0.31825340    -0.55000
C95         C  0.11007821  0.10827210  0.31963410     0.09000
C96         C  0.16791294  0.16124487  0.28418114    -0.54600
C97         C  0.17636574  0.12065533  0.28576386     0.09500
H98         H  0.08948585  0.16180428  0.21719748     0.14100
H99         H  0.14405039  0.06021670  0.28419559    -0.00200
H100        H  0.08080385  0.16281818  0.34076172     0.14400
H101        H  0.19153334  0.18447098  0.28516408     0.14200
C102        C  0.02541086  0.53158558  0.92357721     0.01700
C103        C  0.98211933  0.53459279  0.92719336     0.01700
C104        C  0.95853512  0.49899859  0.92854028    -0.18800
C105        C  0.97764582  0.46095768  0.92618591     0.01700
C106        C  0.02082848  0.45829631  0.92229053     0.01700
C107        C  0.04432649  0.49364728  0.92039885    -0.18800
H108        H  0.07756313  0.49160426  0.91891606     0.03700
H109        H  0.92540212  0.50087337  0.93165266     0.03700
C110        C  0.11351097  0.21652497  0.27772903    -0.01800
C111        C  0.11939683  0.23662222  0.23885161    -0.09900
C112        C  0.10696913  0.27674760  0.23354258    -0.18700
C113        C  0.08922381  0.29875887  0.26755952     0.03700
C114        C  0.08661357  0.27946246  0.30780103     0.17900
C115        C  0.09905638  0.23911611  0.31258398    -0.20100
C116        C  0.07109420  0.30032856  0.34314070    -0.21400
C117        C  0.05713403  0.33984230  0.00649536    -0.19900
C118        C  0.05845990  0.35938896  0.29994393     0.19300
C119        C  0.07423941  0.33921606  0.26334326     0.01400
C120        C  0.07347931  0.36021125  0.22412944    -0.14700
C121        C  0.05730492  0.39938537  0.22155371    -0.12400
C122        C  0.04172238  0.41859966  0.25780969     0.00900
C123        C  0.04307079  0.39891068  0.96421487    -0.24500
H124        H  0.13263389  0.22079644  0.21185469     0.08900
H125        H  0.11166464  0.28965740  0.20249006     0.12500
H126        H  0.09748778  0.22576100  0.34384530     0.11200
H127        H  0.06877596  0.28567339  0.04105964     0.12400
H128        H  0.04496584  0.35508189  0.03440698     0.11500
H129        H  0.08419898  0.34686133  0.19482782     0.08500
H130        H  0.05598865  0.41435813  0.19101441     0.11800
H131        H  0.03082136  0.41399375  0.99221000     0.13700
C132        C  0.12489039  0.76742539  0.28119443    -0.01800
C133        C  0.13356716  0.74645252  0.24338272    -0.09900
C134        C  0.12360105  0.70557979  0.23905909    -0.18700
C135        C  0.10507442  0.68410763  0.27292752     0.03700
C136        C  0.10089961  0.70418999  0.31266533     0.17900
C137        C  0.11150732  0.74509238  0.31663026    -0.20100
C138        C  0.08471486  0.68382877  0.34794873    -0.21400
C139        C  0.07047564  0.64467748  0.01090971    -0.19900
C140        C  0.07150908  0.62482795  0.30465379     0.19300
C141        C  0.08963374  0.64391536  0.26862905     0.01400
C142        C  0.08957691  0.62267818  0.22948216    -0.14700
C143        C  0.07057281  0.58493327  0.22600552    -0.12400
C144        C  0.05131913  0.56756486  0.26126595     0.00900
C145        C  0.05302764  0.58702041  0.96766352    -0.24500
H146        H  0.14654360  0.76223239  0.21628786     0.08900
H147        H  0.13003908  0.69193328  0.20862986     0.12500
H148        H  0.10860110  0.75922911  0.34747615     0.11200
H149        H  0.08203654  0.69884291  0.37849654     0.12400
H150        H  0.05707582  0.63004773  0.03853418     0.11500
H151        H  0.10250234  0.63502203  0.20070401     0.08500
H152        H  0.06919792  0.57011071  0.19531133     0.11800
H153        H  0.03797181  0.57318730  0.99487955     0.13700
C154        C  0.95285513  0.42348920  0.26125252    -0.01800
C155        C  0.94680514  0.40067729  0.22443464    -0.09900
C156        C  0.93140212  0.36133478  0.22688818    -0.18700
C157        C  0.92231257  0.34339459  0.26665893     0.03700
C158        C  0.92911154  0.36684672  0.97118598     0.17900
C159        C  0.94319985  0.40693374  0.96812290    -0.20100
C160        C  0.92347337  0.34947165  0.01131529    -0.21400
C161        C  0.91257995  0.30889617  0.01523682    -0.19900
C162        C  0.90527662  0.28517307  0.31202048     0.19300
C163        C  0.90905371  0.30240042  0.27084626     0.01400
C164        C  0.89902952  0.27792518  0.23565633    -0.14700
C165        C  0.88845882  0.23737814  0.24096312    -0.12400
C166        C  0.88930990  0.21901110  0.28118102     0.00900
C167        C  0.89572497  0.24386206  0.31683723    -0.24500
H168        H  0.95581373  0.41278569  0.19378478     0.08900
H169        H  0.92895716  0.34507902  0.19728659     0.12500
H170        H  0.94951624  0.42424254  0.99666060     0.11200
H171        H  0.92869097  0.36706612  0.03987599     0.12400
H172        H  0.90956219  0.29603266  0.04674618     0.11500
H173        H  0.89841631  0.28939543  0.20363465     0.08500
H174        H  0.88043909  0.22003064  0.21301409     0.11800
H175        H  0.89319172  0.23135021  0.34848561     0.13700
C176        C  0.96179323  0.57466717  0.26380461    -0.01800
C177        C  0.94028442  0.58576658  0.96754658    -0.09900
C178        C  0.92537722  0.62524988  0.97300756    -0.18700
C179        C  0.93182262  0.65505131  0.27468356     0.03700
C180        C  0.95252451  0.64323200  0.23667468     0.17900
C181        C  0.96685044  0.60336460  0.23148657    -0.20100
C182        C  0.95954913  0.67143537  0.20430679    -0.21400
C183        C  0.94698911  0.71145503  0.20898599    -0.19900
C184        C  0.92672546  0.72426151  0.24600262     0.19300
C185        C  0.91832785  0.69617733  0.27924434     0.01400
C186        C  0.89656106  0.71053626  0.31536419    -0.14700
C187        C  0.88342332  0.75080629  0.31801922    -0.12400
C188        C  0.89230284  0.77823552  0.28542573     0.00900
C189        C  0.91426152  0.76496182  0.24968365    -0.24500
H190        H  0.93620541  0.56397274  0.99290700     0.08900
H191        H  0.90984187  0.63157811  0.00261934     0.12500
H192        H  0.98307473  0.59479341  0.20262493     0.11200
H193        H  0.97528567  0.66256887  0.17527488     0.12400
H194        H  0.95314535  0.73256015  0.18339746     0.11500
H195        H  0.88775637  0.69123888  0.00814850     0.08500
H196        H  0.86596551  0.76060694  0.34562925     0.11800
H197        H  0.92034852  0.78607410  0.22404587     0.13700
C198        C  0.42687841  0.04576888  0.30578583    -0.01800
C199        C  0.40365333  0.03173104  0.27146801    -0.09900
C200        C  0.36281283  0.04329468  0.26693404    -0.18700
C201        C  0.34462060  0.07096449  0.29560274     0.03700
C202        C  0.37021268  0.09022505  0.99280295     0.17900
C203        C  0.41094522  0.07700675  0.99816126    -0.20100
C204        C  0.35468154  0.12162020  0.01818223    -0.21400
C205        C  0.31403212  0.13406012  0.01419694    -0.19900
C206        C  0.28751625  0.11361940  0.31980439     0.19300
C207        C  0.30210713  0.08103153  0.29441362     0.01400
C208        C  0.27332479  0.05919286  0.26983857    -0.14700
C209        C  0.23221018  0.07120680  0.26823407    -0.12400
C210        C  0.21881244  0.10540373  0.29064929     0.00900
C211        C  0.24641874  0.12592067  0.31711280    -0.24500
H212        H  0.41630601  0.00924892  0.24992687     0.08900
H213        H  0.34616943  0.03014772  0.24080853     0.12500
H214        H  0.42942453  0.08907964  0.02374313     0.11200
H215        H  0.37418294  0.13690088  0.04089826     0.12400
H216        H  0.30305575  0.15900806  0.03364195     0.11500
H217        H  0.28168963  0.03241294  0.25206503     0.08500
H218        H  0.21117122  0.05445273  0.24831140     0.11800
H219        H  0.23577319  0.15144301  0.33594675     0.13700
C220        C  0.21946488  0.88716267  0.29239890    -0.01800
C221        C  0.22562437  0.91513196  0.32513911    -0.09900
C222        C  0.26501900  0.92987222  0.33364650    -0.18700
C223        C  0.29933476  0.91737080  0.30893783     0.03700
C224        C  0.29222897  0.89025947  0.27458668     0.17900
C225        C  0.25276450  0.87499121  0.26717616    -0.20100
C226        C  0.32449591  0.87850752  0.24768940    -0.21400
C227        C  0.36395372  0.89306979  0.25410367    -0.19900
C228        C  0.37229187  0.91887010  0.28823136     0.19300
C229        C  0.34027761  0.93108808  0.31654825     0.01400
C230        C  0.35047705  0.95731440  0.01773622    -0.14700
C231        C  0.39059345  0.97155972  0.02257732    -0.12400
C232        C  0.42160876  0.96000798  0.32664478     0.00900
C233        C  0.41244809  0.93319510  0.29365672    -0.24500
H234        H  0.20006268  0.92467119  0.34502263     0.08900
H235        H  0.26717328  0.95265300  0.02535917     0.12500
H236        H  0.24779118  0.85356788  0.24154893     0.11200
H237        H  0.31909957  0.85817093  0.22124198     0.12400
H238        H  0.38820250  0.88386071  0.23234037     0.11500
H239        H  0.32821388  0.96729972  0.04101717     0.08500
H240        H  0.39730743  0.99257940  0.04807244     0.11800
H241        H  0.43628603  0.92521500  0.27084819     0.13700
C242        C  0.57217711  0.95061204  0.31962281    -0.01800
C243        C  0.58923462  0.92830715  0.01933085    -0.09900
C244        C  0.62785616  0.90982456  0.34701166    -0.18700
C245        C  0.65004747  0.91408515  0.30832924     0.03700
C246        C  0.63081431  0.93515192  0.27453313     0.17900
C247        C  0.59204401  0.95241035  0.28026115    -0.20100
C248        C  0.65104398  0.94061091  0.23569233    -0.21400
C249        C  0.69085069  0.92680063  0.22995352    -0.19900
C250        C  0.71127223  0.90707331  0.26288064     0.19300
C251        C  0.69102895  0.89961375  0.30225331     0.01400
C252        C  0.71308263  0.87876231  0.33387711    -0.14700
C253        C  0.75415089  0.86794612  0.32738205    -0.12400
C254        C  0.77493107  0.87783609  0.28951490     0.00900
C255        C  0.75230712  0.89571553  0.25671192    -0.24500
H256        H  0.57396228  0.92675986  0.04998612     0.08900
H257        H  0.63997007  0.89432804  0.04081895     0.12500
H258        H  0.57823030  0.96967733  0.25480228     0.11200
H259        H  0.63635294  0.95660236  0.20990554     0.12400
H260        H  0.70608362  0.93236261  0.19977515     0.11500
H261        H  0.69971364  0.87099750  0.36420187     0.08500
H262        H  0.77037544  0.85302625  0.35285677     0.11800
H263        H  0.76597325  0.90143864  0.22603691     0.13700
C264        C  0.78695241  0.10468905  0.28791918    -0.01800
C265        C  0.75589723  0.12211837  0.26340265    -0.09900
C266        C  0.71510353  0.10966091  0.26772374    -0.18700
C267        C  0.70378908  0.07958207  0.29745198     0.03700
C268        C  0.73541629  0.06209067  0.32245696     0.17900
C269        C  0.77662082  0.07409952  0.31683137    -0.20100
C270        C  0.72545342  0.03419229  0.02094642    -0.21400
C271        C  0.68470506  0.02374837  0.02890263    -0.19900
C272        C  0.65308344  0.03969070  0.33759444     0.19300
C273        C  0.66216837  0.06698112  0.30402770     0.01400
C274        C  0.62922734  0.08003665  0.27830244    -0.14700
C275        C  0.58916639  0.06599515  0.28531272    -0.12400
C276        C  0.58034309  0.03943988  0.31879486     0.00900
C277        C  0.61229193  0.02834869  0.01263634    -0.24500
H278        H  0.76318326  0.14585258  0.24086951     0.08900
H279        H  0.69295693  0.12507981  0.24830020     0.12500
H280        H  0.80038895  0.06107629  0.33650407     0.11200
H281        H  0.74924275  0.02090196  0.04036372     0.12400
H282        H  0.67793172  0.00240594  0.05411908     0.11500
H283        H  0.63372325  0.09970041  0.25138653     0.08500
H284        H  0.56527295  0.07477779  0.26344081     0.11800
H285        H  0.60562329  0.00869223  0.03932942     0.13700
C286        C  0.53917748  0.01947381  0.32230483     0.01700
C287        C  0.53608912  0.97659525  0.65989010     0.01700
C288        C  0.49759679  0.95829911  0.66401831    -0.18800
C289        C  0.46174377  0.98115809  0.66003116     0.01700
C290        C  0.46433686  0.02318013  0.31801860     0.01700
C291        C  0.50291155  0.04231550  0.31779530    -0.18800
H292        H  0.50474663  0.07463535  0.31214199     0.03700
H293        H  0.49549549  0.92568341  0.66749794     0.03700
C294        C  0.82134320  0.87103709  0.61953090     0.85900
C295        C  0.84361362  0.89043766  0.65695805    -0.54300
C296        C  0.88501396  0.88435212  0.65712297     0.08900
C297        C  0.90107411  0.85908560  0.61917887     0.19800
C298        C  0.84399085  0.88859107  0.58059064    -0.55000
C299        C  0.88547193  0.88269694  0.58046591     0.09000
C300        C  0.83367566  0.82628665  0.62061457    -0.54600
C301        C  0.87515373  0.81982666  0.62012208     0.09500
H302        H  0.82785853  0.90852652  0.68094565     0.14100
H303        H  0.93484978  0.85423554  0.61914103    -0.00200
H304        H  0.82986822  0.90670850  0.55617578     0.14400
H305        H  0.81144518  0.80172964  0.62097702     0.14200
N306        N  0.08206401  0.94307169  0.49742122    -0.06700
N307        N  0.10986715  0.93474560  0.52665378    -0.58800
N308        N  0.05029534  0.91593043  0.40117614    -0.06300
N309        N  0.05590976  0.88838659  0.70499295    -0.60900
N310        N  0.07943312  0.94355151  0.39957915    -0.05900
N311        N  0.10546664  0.93539655  0.70191042    -0.58800
N312        N  0.05274175  0.91557118  0.49772988    -0.05600
N313        N  0.06017974  0.88781602  0.52655294    -0.61300
C314        C  0.09556594  0.90018616  0.54453380     0.95500
C315        C  0.09023525  0.90100217  0.68469429     0.95300
N316        N  0.92595774  0.94549369  0.40424415    -0.06800
N317        N  0.89774587  0.93923650  0.70857799    -0.59400
N318        N  0.95513801  0.91648037  0.50122779    -0.05000
N319        N  0.94657520  0.88954857  0.53121603    -0.60600
N320        N  0.92704548  0.94514940  0.50089026    -0.06900
N321        N  0.89893557  0.93838751  0.53020093    -0.59600
N322        N  0.95389247  0.91669500  0.40306508    -0.04600
N323        N  0.94530974  0.89029078  0.70605679    -0.60700
Mn324      Mn  0.00303093  0.91485684  0.45093887     1.18400
C325        C  0.91033386  0.90497611  0.68896411     0.97600
C326        C  0.91141472  0.90390389  0.54902672     0.98300
N327        N  0.08002741  0.03921606  0.39981030    -0.06900
N328        N  0.10607143  0.04785015  0.70199917    -0.63200
N329        N  0.05260567  0.06544565  0.49842560    -0.05700
N330        N  0.05898057  0.09286334  0.52776942    -0.63900
N331        N  0.08229742  0.03846843  0.49801037    -0.06400
N332        N  0.10970920  0.04708249  0.52763847    -0.63500
N333        N  0.05070149  0.06655419  0.40192413    -0.05300
N334        N  0.05606216  0.09424670  0.70605575    -0.64200
Mn335      Mn  0.08265153  0.99106515  0.44859987     1.10700
C336        C  0.09040021  0.08238053  0.68537362     0.98800
C337        C  0.09434364  0.08115436  0.54588974     0.98900
N338        N  0.92713253  0.04013880  0.50251415    -0.06400
N339        N  0.90039222  0.04881242  0.53322254    -0.61800
N340        N  0.95510097  0.06874131  0.40482184    -0.05700
N341        N  0.94840863  0.09745563  0.71015086    -0.58500
N342        N  0.92570268  0.04147901  0.40400613    -0.07000
N343        N  0.89822870  0.05111510  0.70807013    -0.61400
N344        N  0.95677228  0.06713460  0.50152687    -0.06000
N345        N  0.95090055  0.09480590  0.53100645    -0.58500
Mn346      Mn  0.92527374  0.99290584  0.45280922     1.20200
Mn347      Mn  0.00394142  0.06756221  0.45173321     1.10100
Cl348      Cl  0.00374367  0.99149228  0.45102030    -0.85300
C349        C  0.91597917  0.08298277  0.55082072     0.95800
C350        C  0.91308525  0.08616680  0.69144732     0.95600
C351        C  0.88219886  0.17340932  0.61820558     0.85900
C352        C  0.89960555  0.15248607  0.65780051    -0.54300
C353        C  0.89288782  0.11153576  0.65919364     0.08900
C354        C  0.86906962  0.09501554  0.62075868     0.19800
C355        C  0.90203676  0.14972518  0.58159389    -0.55000
C356        C  0.89517448  0.10906067  0.58237455     0.09000
C357        C  0.83676588  0.16174264  0.61744629    -0.54600
C358        C  0.82952380  0.12094046  0.61909330     0.09500
H359        H  0.91795743  0.16792469  0.68146441     0.14100
H360        H  0.86382506  0.06177842  0.62165542    -0.00200
H361        H  0.92134752  0.16385004  0.55752948     0.14400
H362        H  0.81232944  0.18413455  0.61686124     0.14200
C363        C  0.12917374  0.81346804  0.61586896     0.85900
C364        C  0.10638748  0.83509320  0.65238547    -0.54300
C365        C  0.11137573  0.87604698  0.65283377     0.08900
C366        C  0.13823200  0.89233962  0.61643882     0.19800
C367        C  0.11252516  0.83456680  0.57630068    -0.55000
C368        C  0.11702313  0.87564683  0.57637970     0.09000
C369        C  0.17385149  0.82728137  0.61919322    -0.54600
C370        C  0.17873314  0.86838264  0.61993494     0.09500
H371        H  0.08636662  0.82019350  0.67513262     0.14100
H372        H  0.14189558  0.92580300  0.61672130    -0.00200
H373        H  0.09639509  0.81853980  0.55127545     0.14400
H374        H  0.19936464  0.80627845  0.62209405     0.14200
C375        C  0.12233397  0.17125960  0.61459811     0.85900
C376        C  0.10729068  0.14788167  0.57587406    -0.54300
C377        C  0.11512728  0.10735300  0.57664004     0.08900
C378        C  0.13800120  0.09329391  0.61659726     0.19800
C379        C  0.10196252  0.14871864  0.65190629    -0.55000
C380        C  0.11025100  0.10817941  0.65315853     0.09000
C381        C  0.16799105  0.16126829  0.61770502    -0.54600
C382        C  0.17647426  0.12067742  0.61917556     0.09500
H383        H  0.08945728  0.16197165  0.55088898     0.14100
H384        H  0.14417419  0.06022125  0.61751645    -0.00200
H385        H  0.08100092  0.16264018  0.67449017     0.14400
H386        H  0.19159832  0.18450644  0.61870887     0.14200
C387        C  0.02539549  0.53143586  0.25654044     0.01700
C388        C  0.98211833  0.53443261  0.26028283     0.01700
C389        C  0.95851079  0.49886031  0.26155946    -0.18800
C390        C  0.97759277  0.46082430  0.25898940     0.01700
C391        C  0.02076673  0.45816083  0.25499235     0.01700
C392        C  0.04428605  0.49350313  0.25318132    -0.18800
H393        H  0.07751973  0.49144822  0.25163980     0.03700
H394        H  0.92538560  0.50074936  0.26476099     0.03700
C395        C  0.11351653  0.21654116  0.61151820    -0.01800
C396        C  0.11957372  0.23675058  0.57273470    -0.09900
C397        C  0.10707031  0.27685951  0.56745687    -0.18700
C398        C  0.08904868  0.29874019  0.60141600     0.03700
C399        C  0.08621483  0.27932824  0.64157892     0.17900
C400        C  0.09875680  0.23900819  0.64633561    -0.20100
C401        C  0.07038145  0.30005388  0.67686631    -0.21400
C402        C  0.05736587  0.33989410  0.33929811    -0.19900
C403        C  0.05796573  0.35923169  0.63377484     0.19300
C404        C  0.07401447  0.33918253  0.59722144     0.01400
C405        C  0.07348996  0.36029008  0.55807064    -0.14700
C406        C  0.05730079  0.39945665  0.55550606    -0.12400
C407        C  0.04147868  0.41856421  0.59171331     0.00900
C408        C  0.04303094  0.39882396  0.29692308    -0.24500
H409        H  0.13298749  0.22100904  0.54577475     0.08900
H410        H  0.11192042  0.28985736  0.53646939     0.12500
H411        H  0.09703421  0.22559904  0.67755859     0.11200
H412        H  0.06924534  0.28583407  0.37395573     0.12400
H413        H  0.04523153  0.35516243  0.36720788     0.11500
H414        H  0.08441970  0.34703847  0.52880180     0.08500
H415        H  0.05618549  0.41451955  0.52500551     0.11800
H416        H  0.03075659  0.41391403  0.32490400     0.13700
C417        C  0.12451801  0.76762475  0.61444077    -0.01800
C418        C  0.13307111  0.74664926  0.57660114    -0.09900
C419        C  0.12308853  0.70577590  0.57231175    -0.18700
C420        C  0.10467523  0.68429531  0.60624319     0.03700
C421        C  0.10048505  0.70442680  0.64595329     0.17900
C422        C  0.11114349  0.74531346  0.64989012    -0.20100
C423        C  0.08426716  0.68412447  0.68125604    -0.21400
C424        C  0.07027829  0.64449531  0.34399844    -0.19900
C425        C  0.07122137  0.62500893  0.63808727     0.19300
C426        C  0.08938138  0.64403608  0.60204443     0.01400
C427        C  0.08956766  0.62263330  0.56299483    -0.14700
C428        C  0.07070455  0.58481118  0.55960477    -0.12400
C429        C  0.05132634  0.56754249  0.59485012     0.00900
C430        C  0.05298404  0.58683307  0.30069986    -0.24500
H431        H  0.14601310  0.76240940  0.54947698     0.08900
H432        H  0.12942942  0.69214002  0.54185765     0.12500
H433        H  0.10830442  0.75946149  0.68073880     0.11200
H434        H  0.08154532  0.69919235  0.71177111     0.12400
H435        H  0.05678874  0.62986540  0.37157683     0.11500
H436        H  0.10260658  0.63488090  0.53422567     0.08500
H437        H  0.06949105  0.56986796  0.52896596     0.11800
H438        H  0.03789254  0.57298067  0.32788428     0.13700
C439        C  0.95258869  0.42363213  0.59489663    -0.01800
C440        C  0.94619942  0.40099198  0.55802877    -0.09900
C441        C  0.93078041  0.36164605  0.56043280    -0.18700
C442        C  0.92204956  0.34351740  0.60019660     0.03700
C443        C  0.92848327  0.36696391  0.30392819     0.17900
C444        C  0.94265030  0.40702248  0.30081905    -0.20100
C445        C  0.92232203  0.34979990  0.34408226    -0.21400
C446        C  0.91144392  0.30922506  0.34809110    -0.19900
C447        C  0.90531891  0.28513469  0.64546404     0.19300
C448        C  0.90886799  0.30248284  0.60432379     0.01400
C449        C  0.89873900  0.27806607  0.56911565    -0.14700
C450        C  0.88822554  0.23748855  0.57436246    -0.12400
C451        C  0.88920736  0.21903403  0.61453215     0.00900
C452        C  0.89577098  0.24381454  0.65021509    -0.24500
H453        H  0.95496006  0.41323012  0.52736170     0.08900
H454        H  0.92803287  0.34554155  0.53077212     0.12500
H455        H  0.94864386  0.42447330  0.32933880     0.11200
H456        H  0.92714879  0.36755214  0.37261238     0.12400
H457        H  0.90804836  0.29651750  0.37963209     0.11500
H458        H  0.89803612  0.28958993  0.53711849     0.08500
H459        H  0.88015779  0.22018071  0.54640155     0.11800
H460        H  0.89337053  0.23124206  0.68184528     0.13700
C461        C  0.96178175  0.57480523  0.59702323    -0.01800
C462        C  0.94079524  0.58571948  0.30098357    -0.09900
C463        C  0.92596805  0.62522178  0.30648085    -0.18700
C464        C  0.93187661  0.65521021  0.60794022     0.03700
C465        C  0.95320151  0.64358893  0.57023350     0.17900
C466        C  0.96742366  0.60369328  0.56498233    -0.20100
C467        C  0.96096243  0.67201665  0.53825560    -0.21400
C468        C  0.94851660  0.71206042  0.54304250    -0.19900
C469        C  0.92757479  0.72465137  0.57973881     0.19300
C470        C  0.91841678  0.69633775  0.61255356     0.01400
C471        C  0.89592673  0.71046817  0.64829717    -0.14700
C472        C  0.88281111  0.75073895  0.65098136    -0.12400
C473        C  0.89243246  0.77839805  0.61881839     0.00900
C474        C  0.91515102  0.76535640  0.58348911    -0.24500
H475        H  0.93703941  0.56401789  0.32648207     0.08900
H476        H  0.91082576  0.63166819  0.33627825     0.12500
H477        H  0.98404416  0.59525371  0.53632020     0.11200
H478        H  0.97720389  0.66330964  0.50946629     0.12400
H479        H  0.95525838  0.73334413  0.51777137     0.11500
H480        H  0.88857311  0.69126089  0.34172454     0.08500
H481        H  0.86477580  0.76035662  0.67826671     0.11800
H482        H  0.92181963  0.78664402  0.55816296     0.13700
C483        C  0.42702733  0.04581413  0.63912281    -0.01800
C484        C  0.40378567  0.03176167  0.60482411    -0.09900
C485        C  0.36294892  0.04334031  0.60029459    -0.18700
C486        C  0.34475904  0.07099868  0.62897860     0.03700
C487        C  0.37022990  0.08985072  0.32626128     0.17900
C488        C  0.41090442  0.07651053  0.33173488    -0.20100
C489        C  0.35461355  0.12103306  0.35187418    -0.21400
C490        C  0.31400408  0.13356554  0.34780278    -0.19900
C491        C  0.28764546  0.11362809  0.65321613     0.19300
C492        C  0.30224205  0.08106230  0.62779911     0.01400
C493        C  0.27346114  0.05924101  0.60320452    -0.14700
C494        C  0.23234615  0.07125883  0.60159614    -0.12400
C495        C  0.21894084  0.10544306  0.62402798     0.00900
C496        C  0.24654731  0.12593866  0.65051687    -0.24500
H497        H  0.41641351  0.00923568  0.58331547     0.08900
H498        H  0.34629970  0.03019429  0.57417366     0.12500
H499        H  0.42927668  0.08835734  0.35751432     0.11200
H500        H  0.37401198  0.13605808  0.37486906     0.12400
H501        H  0.30295451  0.15832234  0.36747295     0.11500
H502        H  0.28182603  0.03246991  0.58541789     0.08500
H503        H  0.21131062  0.05451255  0.58166258     0.11800
H504        H  0.23589992  0.15144404  0.66937378     0.13700
C505        C  0.21942037  0.88712194  0.62620814    -0.01800
C506        C  0.22546454  0.91571162  0.65839063    -0.09900
C507        C  0.26486244  0.93048350  0.66687670    -0.18700
C508        C  0.29929765  0.91739394  0.64268785     0.03700
C509        C  0.29231954  0.88966342  0.60885899     0.17900
C510        C  0.25286145  0.87436587  0.60150224    -0.20100
C511        C  0.32469676  0.87736857  0.58237627    -0.21400
C512        C  0.36412881  0.89204958  0.58865078    -0.19900
C513        C  0.37234518  0.91845167  0.62230054     0.19300
C514        C  0.34023681  0.93114581  0.65026832     0.01400
C515        C  0.35075389  0.95653177  0.35105496    -0.14700
C516        C  0.39084836  0.97084968  0.35579737    -0.12400
C517        C  0.42158064  0.96011055  0.66021539     0.00900
C518        C  0.41248414  0.93286339  0.62760094    -0.24500
H519        H  0.19980248  0.92575148  0.67785634     0.08900
H520        H  0.26759041  0.95110269  0.35954348     0.12500
H521        H  0.24799649  0.85250927  0.57625695     0.11200
H522        H  0.31939825  0.85655010  0.55632074     0.12400
H523        H  0.38845670  0.88244325  0.56717445     0.11500
H524        H  0.32859065  0.96630429  0.37453344     0.08500
H525        H  0.39763886  0.99167641  0.38144377     0.11800
H526        H  0.43637904  0.92453488  0.60499567     0.13700
C527        C  0.57216268  0.95040729  0.65259492    -0.01800
C528        C  0.58932485  0.92798659  0.35247635    -0.09900
C529        C  0.62783308  0.90954987  0.67987782    -0.18700
C530        C  0.65006681  0.91396887  0.64124123     0.03700
C531        C  0.63084822  0.93512051  0.60749611     0.17900
C532        C  0.59204938  0.95231630  0.61324322    -0.20100
C533        C  0.65112851  0.94074449  0.56870733    -0.21400
C534        C  0.69096732  0.92701352  0.56297935    -0.19900
C535        C  0.71137117  0.90720259  0.59586463     0.19300
C536        C  0.69107974  0.89958413  0.63517759     0.01400
C537        C  0.71312277  0.87868567  0.66677305    -0.14700
C538        C  0.75421259  0.86794993  0.66030840    -0.12400
C539        C  0.77502733  0.87795454  0.62249612     0.00900
C540        C  0.75243500  0.89592553  0.58972307    -0.24500
H541        H  0.57394792  0.92629003  0.38306711     0.08900
H542        H  0.64004088  0.89398462  0.37399711     0.12500
H543        H  0.57824810  0.96965673  0.58783182     0.11200
H544        H  0.63645274  0.95680805  0.54296021     0.12400
H545        H  0.70623722  0.93270265  0.53284720     0.11500
H546        H  0.69973047  0.87082225  0.69705782     0.08500
H547        H  0.77042454  0.85299002  0.68576654     0.11800
H548        H  0.76614778  0.90180796  0.55910568     0.13700
C549        C  0.78712608  0.10441319  0.62112358    -0.01800
C550        C  0.75614533  0.12153706  0.59629208    -0.09900
C551        C  0.71537200  0.10899980  0.60053097    -0.18700
C552        C  0.70399611  0.07916307  0.63050697     0.03700
C553        C  0.73556345  0.06193332  0.65579150     0.17900
C554        C  0.77676102  0.07401940  0.65025494    -0.20100
C555        C  0.72553539  0.03366512  0.35383254    -0.21400
C556        C  0.68480602  0.02321460  0.36187115    -0.19900
C557        C  0.65321505  0.03945666  0.67076617     0.19300
C558        C  0.66236658  0.06657102  0.63705794     0.01400
C559        C  0.62947041  0.07951394  0.61120756    -0.14700
C560        C  0.58938464  0.06556893  0.61825446    -0.12400
C561        C  0.58049596  0.03917683  0.65185210     0.00900
C562        C  0.61234381  0.02805033  0.34595018    -0.24500
H563        H  0.76347869  0.14510501  0.57358193     0.08900
H564        H  0.69328947  0.12417681  0.58082872     0.12500
H565        H  0.80048768  0.06121873  0.67014061     0.11200
H566        H  0.74939036  0.02014102  0.37298681     0.12400
H567        H  0.67810742  0.00163294  0.38688289     0.11500
H568        H  0.63400207  0.09905805  0.58420498     0.08500
H569        H  0.56551650  0.07429397  0.59632717     0.11800
H570        H  0.60575042  0.00821962  0.37251819     0.13700
C571        C  0.53929315  0.01930813  0.65541424     0.01700
C572        C  0.53594515  0.97703579  0.99364424     0.01700
C573        C  0.49745926  0.95872897  0.99777244    -0.18800
C574        C  0.46160164  0.98153067  0.99356651     0.01700
C575        C  0.46445190  0.02318165  0.65136546     0.01700
C576        C  0.50307105  0.04223048  0.65099570    -0.18800
H577        H  0.50497098  0.07453991  0.64529937     0.03700
H578        H  0.49537312  0.92612489  0.00138391     0.03700
C579        C  0.82099576  0.87107688  0.95303433     0.85900
C580        C  0.84334688  0.89047662  0.99041379    -0.54300
C581        C  0.88474448  0.88436999  0.99050517     0.08900
C582        C  0.90072260  0.85910310  0.95252293     0.19800
C583        C  0.84357371  0.88865074  0.91405311    -0.55000
C584        C  0.88506070  0.88273925  0.91384239     0.09000
C585        C  0.83332236  0.82631947  0.95409341    -0.54600
C586        C  0.87479617  0.81984530  0.95351220     0.09500
H587        H  0.82764607  0.90857621  0.01443008     0.14100
H588        H  0.93449646  0.85424035  0.95242075    -0.00200
H589        H  0.82938965  0.90681796  0.88971002     0.14400
H590        H  0.81108746  0.80176710  0.95451185     0.14200
N591        N  0.08181277  0.94299265  0.83090913    -0.06700
N592        N  0.10962701  0.93464467  0.86011568    -0.58800
N593        N  0.05007989  0.91589790  0.73465773    -0.06300
N594        N  0.05588939  0.88830387  0.03829298    -0.60900
N595        N  0.07923775  0.94349794  0.73309108    -0.05900
N596        N  0.10539554  0.93537224  0.03525580    -0.58800
N597        N  0.05247697  0.91550502  0.83122381    -0.05600
N598        N  0.05992597  0.88772714  0.86002648    -0.61300
C599        C  0.09532930  0.90008450  0.87798525     0.95500
C600        C  0.09024013  0.90094260  0.01805736     0.95300
N601        N  0.92578768  0.94555509  0.73763313    -0.06800
N602        N  0.89755825  0.93919643  0.04200588    -0.59400
N603        N  0.95482754  0.91651822  0.83466075    -0.05000
N604        N  0.94619391  0.88957764  0.86461975    -0.60600
N605        N  0.92675071  0.94520532  0.83428794    -0.06900
N606        N  0.89857385  0.93843248  0.86353774    -0.59600
N607        N  0.95369661  0.91673312  0.73648538    -0.04600
N608        N  0.94512463  0.89026088  0.03935401    -0.60700
Mn609      Mn  0.00278286  0.91484170  0.78440495     1.18400
C610        C  0.91012295  0.90496298  0.02232646     0.97600
C611        C  0.91100203  0.90392962  0.88236957     0.98300
N612        N  0.08002334  0.03909477  0.73326283    -0.06900
N613        N  0.10575310  0.04784078  0.03533898    -0.63200
N614        N  0.05248247  0.06537613  0.83181696    -0.05700
N615        N  0.05883819  0.09279439  0.86115679    -0.63900
N616        N  0.08214784  0.03837290  0.83145750    -0.06400
N617        N  0.10953095  0.04697150  0.86111499    -0.63500
N618        N  0.05070454  0.06644111  0.73531126    -0.05300
N619        N  0.05574186  0.09423100  0.03952338    -0.64200
Mn620      Mn  0.08249799  0.99097045  0.78208474     1.10700
C621        C  0.09004402  0.08237936  0.01877519     0.98800
C622        C  0.09416592  0.08106097  0.87932512     0.98900
N623        N  0.92701000  0.04024077  0.83584604    -0.06400
N624        N  0.90029659  0.04893615  0.86657227    -0.61800
N625        N  0.95510859  0.06872611  0.73811828    -0.05700
N626        N  0.94823843  0.09735760  0.04365205    -0.58500
N627        N  0.92566721  0.04150894  0.73732249    -0.07000
N628        N  0.89805934  0.05102048  0.04151318    -0.61400
N629        N  0.95666772  0.06721783  0.83483253    -0.06000
N630        N  0.95083180  0.09490006  0.86431149    -0.58500
Mn631      Mn  0.92511330  0.99297300  0.78617738     1.20200
Mn632      Mn  0.00388607  0.06753450  0.78507519     1.10100
Cl633      Cl  0.00358643  0.99147272  0.78444928    -0.85300
C634        C  0.91591414  0.08310133  0.88415263     0.95800
C635        C  0.91294196  0.08606806  0.02489497     0.95600
C636        C  0.88225909  0.17344441  0.95174477     0.85900
C637        C  0.89956909  0.15241933  0.99132290    -0.54300
C638        C  0.89279340  0.11147975  0.99263228     0.08900
C639        C  0.86900532  0.09506554  0.95412138     0.19800
C640        C  0.90211133  0.14980557  0.91511132    -0.55000
C641        C  0.89518155  0.10914820  0.91579256     0.09000
C642        C  0.83680678  0.16184899  0.95088341    -0.54600
C643        C  0.82949827  0.12105635  0.95244950     0.09500
H644        H  0.91792627  0.16777019  0.01504089     0.14100
H645        H  0.86370472  0.06183543  0.95494738    -0.00200
H646        H  0.92143268  0.16396820  0.89107857     0.14400
H647        H  0.81240388  0.18427723  0.95031773     0.14200
C648        C  0.12935693  0.81346806  0.94929748     0.85900
C649        C  0.10665560  0.83503102  0.98590596    -0.54300
C650        C  0.11147965  0.87600271  0.98627439     0.08900
C651        C  0.13813560  0.89236442  0.94976518     0.19800
C652        C  0.11244114  0.83448989  0.90979273    -0.55000
C653        C  0.11682101  0.87558047  0.90982438     0.09000
C654        C  0.17400701  0.82744372  0.95239525    -0.54600
C655        C  0.17873845  0.86856373  0.95308513     0.09500
H656        H  0.08676712  0.82007960  0.00874096     0.14100
H657        H  0.14167344  0.92584153  0.95000929    -0.00200
H658        H  0.09627476  0.81840216  0.88483595     0.14400
H659        H  0.19961120  0.80653679  0.95520451     0.14200
C660        C  0.12205505  0.17120415  0.94795841     0.85900
C661        C  0.10712033  0.14780063  0.90921295    -0.54300
C662        C  0.11493579  0.10727192  0.91005056     0.08900
C663        C  0.13768194  0.09323615  0.95008500     0.19800
C664        C  0.10155727  0.14870640  0.98522488    -0.55000
C665        C  0.10984437  0.10816693  0.98653927     0.09000
C666        C  0.16769731  0.16118863  0.95121387    -0.54600
C667        C  0.17616246  0.12059035  0.95276137     0.09500
H668        H  0.08934102  0.16186431  0.88417095     0.14100
H669        H  0.14381223  0.06015838  0.95106155    -0.00200
H670        H  0.08056100  0.16267346  0.00774808     0.14400
H671        H  0.19130240  0.18442644  0.95223141     0.14200
C672        C  0.02535674  0.53144116  0.59012590     0.01700
C673        C  0.98206174  0.53452794  0.59361768     0.01700
C674        C  0.95838895  0.49899264  0.59490594    -0.18800
C675        C  0.97741247  0.46091454  0.59261895     0.01700
C676        C  0.02059940  0.45816495  0.58885182     0.01700
C677        C  0.04418998  0.49346308  0.58701717    -0.18800
H678        H  0.07742489  0.49134636  0.58562930     0.03700
H679        H  0.92525291  0.50094393  0.59792609     0.03700
C680        C  0.11327916  0.21649131  0.94482597    -0.01800
C681        C  0.11926476  0.23665637  0.90600343    -0.09900
C682        C  0.10687454  0.27680093  0.90073806    -0.18700
C683        C  0.08907171  0.29877407  0.93475131     0.03700
C684        C  0.08632255  0.27940090  0.97494255     0.17900
C685        C  0.09871273  0.23902800  0.97967853    -0.20100
C686        C  0.07074272  0.30022789  0.01028261    -0.21400
C687        C  0.05660613  0.33960751  0.67305176    -0.19900
C688        C  0.05838156  0.35942151  0.96718928     0.19300
C689        C  0.07417699  0.33927242  0.93058177     0.01400
C690        C  0.07352308  0.36033380  0.89140463    -0.14700
C691        C  0.05739994  0.39953275  0.88886049    -0.12400
C692        C  0.04179846  0.41872993  0.92511958     0.00900
C693        C  0.04255925  0.39868023  0.63077845    -0.24500
H694        H  0.13256234  0.22087085  0.87901185     0.08900
H695        H  0.11166369  0.28976380  0.86972498     0.12500
H696        H  0.09704325  0.22562494  0.01091072     0.11200
H697        H  0.06834002  0.28546334  0.70762001     0.12400
H698        H  0.04424427  0.35476991  0.70092034     0.11500
H699        H  0.08426279  0.34700755  0.86209897     0.08500
H700        H  0.05613347  0.41453840  0.85833641     0.11800
H701        H  0.03014791  0.41370151  0.65873516     0.13700
C702        C  0.12485319  0.76761196  0.94791399    -0.01800
C703        C  0.13329529  0.74667518  0.91002972    -0.09900
C704        C  0.12330679  0.70581043  0.90573500    -0.18700
C705        C  0.10500375  0.68430114  0.93970590     0.03700
C706        C  0.10101649  0.70436357  0.97947454     0.17900
C707        C  0.11166958  0.74525586  0.98341236    -0.20100
C708        C  0.08496829  0.68399536  0.01481966    -0.21400
C709        C  0.06986007  0.64477867  0.67736975    -0.19900
C710        C  0.07157156  0.62501258  0.97156023     0.19300
C711        C  0.08960134  0.64409030  0.93547918     0.01400
C712        C  0.08952946  0.62280460  0.89636217    -0.14700
C713        C  0.07056320  0.58504053  0.89295714    -0.12400
C714        C  0.05132784  0.56771803  0.92825063     0.00900
C715        C  0.05280495  0.58695603  0.63421369    -0.24500
H716        H  0.14611472  0.76246935  0.88286612     0.08900
H717        H  0.12953904  0.69221075  0.87524084     0.12500
H718        H  0.10893726  0.75938381  0.01428207     0.11200
H719        H  0.08242418  0.69899842  0.04538456     0.12400
H720        H  0.05634027  0.63019627  0.70496039     0.11500
H721        H  0.10244559  0.63510058  0.86755849     0.08500
H722        H  0.06918534  0.57017303  0.86228681     0.11800
H723        H  0.03763416  0.57317422  0.66139141     0.13700
C724        C  0.95292325  0.42361575  0.92853085    -0.01800
C725        C  0.94644534  0.40099216  0.89166839    -0.09900
C726        C  0.93107134  0.36163031  0.89409352    -0.18700
C727        C  0.92247419  0.34347229  0.93387032     0.03700
C728        C  0.92849763  0.36694792  0.63751225     0.17900
C729        C  0.94264699  0.40701633  0.63446302    -0.20100
C730        C  0.92262952  0.34964022  0.67764052    -0.21400
C731        C  0.91173438  0.30906622  0.68157442    -0.19900
C732        C  0.90589436  0.28504557  0.97912087     0.19300
C733        C  0.90922648  0.30246161  0.93799785     0.01400
C734        C  0.89877820  0.27815167  0.90280992    -0.14700
C735        C  0.88816351  0.23759634  0.90804233    -0.12400
C736        C  0.88935229  0.21906129  0.94816009     0.00900
C737        C  0.89625893  0.24374584  0.98384790    -0.24500
H738        H  0.95508435  0.41326450  0.86098011     0.08900
H739        H  0.92824596  0.34553530  0.86443587     0.12500
H740        H  0.94885550  0.42435222  0.66300958     0.11200
H741        H  0.92767777  0.36728559  0.70620095     0.12400
H742        H  0.90854222  0.29625688  0.71309124     0.11500
H743        H  0.89788552  0.28975443  0.87085079     0.08500
H744        H  0.87988190  0.22034918  0.88010680     0.11800
H745        H  0.89401526  0.23113915  0.01547035     0.13700
C746        C  0.96175598  0.57484473  0.93060666    -0.01800
C747        C  0.94020893  0.58568943  0.63390729    -0.09900
C748        C  0.92539398  0.62519148  0.63941192    -0.18700
C749        C  0.93163880  0.65521048  0.94142618     0.03700
C750        C  0.95277537  0.64352253  0.90362668     0.17900
C751        C  0.96715133  0.60366413  0.89845270    -0.20100
C752        C  0.96017634  0.67184631  0.87145944    -0.21400
C753        C  0.94757094  0.71185298  0.87614306    -0.19900
C754        C  0.92690089  0.72453717  0.91296679     0.19300
C755        C  0.91812713  0.69633740  0.94600006     0.01400
C756        C  0.89600382  0.71059475  0.98193553    -0.14700
C757        C  0.88285312  0.75086650  0.98458749    -0.12400
C758        C  0.89207023  0.77840361  0.95218316     0.00900
C759        C  0.91441430  0.76523288  0.91665308    -0.24500
H760        H  0.93598200  0.56384788  0.65919897     0.08900
H761        H  0.90979435  0.63149205  0.66899147     0.12500
H762        H  0.98366688  0.59519483  0.86973510     0.11200
H763        H  0.97624324  0.66308348  0.84258521     0.12400
H764        H  0.95402134  0.73304808  0.85071126     0.11500
H765        H  0.88731338  0.69100591  0.67429651     0.08500
H766        H  0.86512372  0.76058390  0.01204567     0.11800
H767        H  0.92078544  0.78642457  0.89115884     0.13700
C768        C  0.42683817  0.04609000  0.97238720    -0.01800
C769        C  0.40347014  0.03178892  0.93828699    -0.09900
C770        C  0.36255842  0.04317911  0.93394006    -0.18700
C771        C  0.34446292  0.07100873  0.96249729     0.03700
C772        C  0.37036968  0.08986709  0.65964884     0.17900
C773        C  0.41105578  0.07654316  0.66509169    -0.20100
C774        C  0.35474095  0.12101015  0.68530790    -0.21400
C775        C  0.31412701  0.13353932  0.68125047    -0.19900
C776        C  0.28742491  0.11380415  0.98656152     0.19300
C777        C  0.30192099  0.08096922  0.96147608     0.01400
C778        C  0.27303661  0.05882711  0.93733210    -0.14700
C779        C  0.23192105  0.07084592  0.93571503    -0.12400
C780        C  0.21861334  0.10532045  0.95772905     0.00900
C781        C  0.24631627  0.12607240  0.98389489    -0.24500
H782        H  0.41605422  0.00917965  0.91685108     0.08900
H783        H  0.34578226  0.02978725  0.90803996     0.12500
H784        H  0.42943161  0.08837467  0.69087575     0.11200
H785        H  0.37413433  0.13601140  0.70832449     0.12400
H786        H  0.30307119  0.15827012  0.70095252     0.11500
H787        H  0.28134198  0.03183393  0.91988425     0.08500
H788        H  0.21082406  0.05387397  0.91606318     0.11800
H789        H  0.23575551  0.15177909  0.00249695     0.13700
C790        C  0.21936317  0.88747561  0.95923737    -0.01800
C791        C  0.22535821  0.91605917  0.99143620    -0.09900
C792        C  0.26472363  0.93091252  0.99991346    -0.18700
C793        C  0.29917815  0.91790330  0.97571145     0.03700
C794        C  0.29223210  0.89027818  0.94178032     0.17900
C795        C  0.25280351  0.87489059  0.93442954    -0.20100
C796        C  0.32462195  0.87814457  0.91522993    -0.21400
C797        C  0.36404828  0.89281007  0.92160290    -0.19900
C798        C  0.37224951  0.91901575  0.95542738     0.19300
C799        C  0.34011259  0.93160425  0.98341049     0.01400
C800        C  0.35062635  0.95704757  0.68442578    -0.14700
C801        C  0.39073781  0.97134972  0.68912170    -0.12400
C802        C  0.42147139  0.96042301  0.99367026     0.00900
C803        C  0.41240283  0.93333236  0.96090005    -0.24500
H804        H  0.19969054  0.92600383  0.01094746     0.08900
H805        H  0.26734614  0.95224555  0.69229691     0.12500
H806        H  0.24796930  0.85306700  0.90914646     0.11200
H807        H  0.31934504  0.85743770  0.88907246     0.12400
H808        H  0.38839174  0.88331108  0.90009267     0.11500
H809        H  0.32838922  0.96713852  0.70768169     0.08500
H810        H  0.39747744  0.99247628  0.71451286     0.11800
H811        H  0.43632616  0.92509689  0.93828895     0.13700
C812        C  0.57200907  0.95082086  0.98644236    -0.01800
C813        C  0.58929430  0.92768246  0.68537806    -0.09900
C814        C  0.62771810  0.91006850  0.01380362    -0.18700
C815        C  0.64978635  0.91414334  0.97502240     0.03700
C816        C  0.63045027  0.93505288  0.94118545     0.17900
C817        C  0.59172788  0.95240407  0.94698668    -0.20100
C818        C  0.65054528  0.94027793  0.90223111    -0.21400
C819        C  0.69034920  0.92645843  0.89644035    -0.19900
C820        C  0.71090126  0.90695572  0.92942887     0.19300
C821        C  0.69075855  0.89966545  0.96889512     0.01400
C822        C  0.71290965  0.87899965  0.00057359    -0.14700
C823        C  0.75397611  0.86821701  0.99404346    -0.12400
C824        C  0.77467820  0.87798478  0.95609517     0.00900
C825        C  0.75196685  0.89567270  0.92324141    -0.24500
H826        H  0.57390355  0.92589183  0.71595532     0.08900
H827        H  0.63999539  0.89362197  0.70681617     0.12500
H828        H  0.57784353  0.96957327  0.92149675     0.11200
H829        H  0.63576342  0.95612151  0.87640012     0.12400
H830        H  0.70548698  0.93186368  0.86618013     0.11500
H831        H  0.69962168  0.87135707  0.03096946     0.08500
H832        H  0.77026590  0.85343056  0.01955882     0.11800
H833        H  0.76560157  0.90130187  0.89252710     0.13700
C834        C  0.78706949  0.10460140  0.95449065    -0.01800
C835        C  0.75611017  0.12172882  0.92962925    -0.09900
C836        C  0.71531185  0.10925476  0.93389830    -0.18700
C837        C  0.70389183  0.07949951  0.96394989     0.03700
C838        C  0.73543473  0.06230542  0.98929308     0.17900
C839        C  0.77665234  0.07430424  0.98370968    -0.20100
C840        C  0.72562215  0.03369713  0.68733837    -0.21400
C841        C  0.68488633  0.02318312  0.69526475    -0.19900
C842        C  0.65305804  0.03995052  0.00431983     0.19300
C843        C  0.66224557  0.06695138  0.97052042     0.01400
C844        C  0.62936980  0.07981160  0.94459644    -0.14700
C845        C  0.58927284  0.06588227  0.95165381    -0.12400
C846        C  0.58034995  0.03959452  0.98533712     0.00900
C847        C  0.61245858  0.02782635  0.67907700    -0.24500
H848        H  0.76348231  0.14524722  0.90687498     0.08900
H849        H  0.69324239  0.12441721  0.91416643     0.12500
H850        H  0.80035988  0.06151981  0.00363092     0.11200
H851        H  0.74943122  0.02036575  0.70669959     0.12400
H852        H  0.67814029  0.00174758  0.72040132     0.11500
H853        H  0.63393465  0.09926643  0.91752696     0.08500
H854        H  0.56542510  0.07453493  0.92967214     0.11800
H855        H  0.60581229  0.00806737  0.70569301     0.13700
loop_ 
_geom_bond_atom_site_label_1 
_geom_bond_atom_site_label_2 
_geom_bond_distance 
_geom_bond_site_symmetry_2 
_ccdc_geom_bond_type 
C1            C6   1.409       .  A
C1          C572   1.421   1_545  A
C1          C846   1.496       .  S
C2            C3   1.396       .  A
C2          C286   1.421   1_565  A
C2          C242   1.474       .  S
C3            C4   1.396       .  A
C3            H8   1.085       .  S
C4          C290   1.417   1_565  A
C4          C232   1.480       .  S
C5            C6   1.405       .  A
C5          C574   1.417   1_545  A
C5          C768   1.484       .  S
C6            H7   1.084       .  S
C9           C10   1.528       .  S
C9           C15   1.532       .  S
C9           C13   1.540       .  S
C9          C254   1.527       .  S
C10          H17   1.087       .  S
C10          C11   1.362       .  D
C11          C12   1.543       .  S
C11          C40   1.469       .  S
C12          C16   1.546       .  S
C12          C14   1.538       .  S
C12          H18   1.111       .  S
C13          H19   1.081       .  S
C13          C14   1.364       .  D
C14          C41   1.474       .  S
C15          H20   1.086       .  S
C15          C16   1.367       .  D
C16         C188   1.479       .  S
N21          N22   1.325       .  A
N21          N27   1.317       .  A
N21         Mn50   2.210       .  S
N22          C29   1.354       .  A
N23          N25   1.316       .  A
N23         N594   1.314       .  A
N23         Mn39   2.187       .  S
N24         N308   1.314       .  A
N24          C30   1.349       .  A
N25         N596   1.323       .  A
N25         Mn50   2.199       .  S
N26         N310   1.323       .  A
N26          C30   1.353       .  A
N27          N28   1.315       .  A
N27         Mn39   2.198       .  S
N28          C29   1.350       .  A
C29          C83   1.471       .  S
C30          C80   1.464       .  S
N31          N37   1.316       .  A
N31         N602   1.314       .  A
N31         Mn61   2.185       .  S
N32         N316   1.314       .  A
N32          C40   1.350       .  A
N33          N34   1.326       .  A
N33          N35   1.316       .  A
N33         Mn39   2.213   1_655  S
N34          C41   1.355       .  A
N35          N36   1.314       .  A
N35         Mn61   2.190       .  S
N36          C41   1.349       .  A
N37         N608   1.325       .  A
N37         Mn39   2.208   1_655  S
N38         N322   1.325       .  A
N38          C40   1.354       .  A
Mn39        Cl63   2.530       .  S
N42          N48   1.315       .  A
N42         N613   1.326       .  A
N42         Mn50   2.215   1_545  S
N43         N327   1.326       .  A
N43          C51   1.357       .  A
N44          N46   1.314       .  A
N44          N45   1.309       .  A
N44         Mn62   2.170       .  S
N45          C52   1.346       .  A
N46          N47   1.326       .  A
N46         Mn50   2.203   1_545  S
N47          C52   1.356       .  A
N48         N619   1.312       .  A
N48         Mn62   2.176       .  S
N49         N333   1.313       .  A
N49          C51   1.347       .  A
Mn50        Cl63   2.568       .  S
C51          C95   1.471       .  S
C52          C92   1.465       .  S
N53          N54   1.326       .  A
N53          N59   1.313       .  A
N53         Mn61   2.207   1_545  S
N54          C64   1.356       .  A
N55          N57   1.314       .  A
N55         N626   1.315       .  A
N55         Mn62   2.179   1_655  S
N56         N340   1.315       .  A
N56          C65   1.348       .  A
N57         N628   1.327       .  A
N57         Mn61   2.224   1_545  S
N58         N342   1.327       .  A
N58          C65   1.358       .  A
N59          N60   1.314       .  A
N59         Mn62   2.185   1_655  S
N60          C64   1.350       .  A
Mn61        Cl63   2.555   1_655  S
Mn62        Cl63   2.511   1_545  S
C64          C71   1.474       .  S
C65          C68   1.477       .  S
C66          C67   1.539       .  S
C66          C72   1.528       .  S
C66          C70   1.530       .  S
C66         C166   1.527       .  S
C67          H74   1.085       .  S
C67          C68   1.370       .  D
C68          C69   1.541       .  S
C69          C73   1.548       .  S
C69          C71   1.544       .  S
C69          H75   1.111       .  S
C70          H76   1.086       .  S
C70          C71   1.361       .  D
C72          H77   1.086       .  S
C72          C73   1.368       .  D
C73         C264   1.485       .  S
C78          C79   1.538       .  S
C78          C84   1.528       .  S
C78          C82   1.532       .  S
C78         C132   1.521       .  S
C79          H86   1.083       .  S
C79          C80   1.362       .  D
C80          C81   1.534       .  S
C81          C85   1.542       .  S
C81          C83   1.543       .  S
C81          H87   1.111       .  S
C82          H88   1.087       .  S
C82          C83   1.364       .  D
C84          H89   1.087       .  S
C84          C85   1.366       .  D
C85         C220   1.475       .  S
C90          C91   1.525       .  S
C90          C96   1.526       .  S
C90          C94   1.538       .  S
C90         C110   1.525       .  S
C91          H98   1.087       .  S
C91          C92   1.362       .  D
C92          C93   1.539       .  S
C93          C97   1.546       .  S
C93          C95   1.537       .  S
C93          H99   1.111       .  S
C94         H100   1.083       .  S
C94          C95   1.366       .  D
C96         H101   1.086       .  S
C96          C97   1.369       .  D
C97         C210   1.480       .  S
C102        C103   1.416   1_455  A
C102        C107   1.399       .  A
C102        C714   1.468       .  S
C103        C104   1.404       .  A
C103        C746   1.488       .  S
C104        C105   1.403       .  A
C104        H109   1.084       .  S
C105        C106   1.412   1_655  A
C105        C724   1.473       .  S
C106        C107   1.396       .  A
C106        C692   1.477       .  S
C107        H108   1.084       .  S
C110        C111   1.405       .  A
C110        C115   1.404       .  A
C111        C112   1.396       .  A
C111        H124   1.083       .  S
C112        C113   1.413       .  A
C112        H125   1.077       .  S
C113        C119   1.429       .  A
C113        C114   1.421       .  A
C114        C116   1.398       .  A
C114        C115   1.401       .  A
C115        H126   1.080       .  S
C116        C402   1.386       .  A
C116        H412   1.084       .  S
C117        C686   1.387       .  A
C117        C688   1.398   1_554  A
C117        H128   1.084       .  S
C118        C119   1.422       .  A
C118        C402   1.398       .  A
C118        C408   1.399       .  A
C119        C120   1.418       .  A
C120        C121   1.399       .  A
C120        H129   1.077       .  S
C121        C122   1.396       .  A
C121        H130   1.083       .  S
C122        C408   1.396       .  A
C122        C391   1.477       .  S
C123        C688   1.399       .  A
C123        C692   1.396       .  A
C123        H131   1.085       .  S
H127        C686   1.084       .  S
C132        C133   1.403       .  A
C132        C137   1.405       .  A
C133        C134   1.394       .  A
C133        H146   1.083       .  S
C134        C135   1.413       .  A
C134        H147   1.077       .  S
C135        C141   1.425       .  A
C135        C136   1.420       .  A
C136        C138   1.399       .  A
C136        C137   1.399       .  A
C137        H148   1.080       .  S
C138        C424   1.386       .  A
C138        H149   1.084       .  S
C139        C708   1.386       .  A
C139        C710   1.398   1_554  A
C139        H150   1.084       .  S
C140        C141   1.423       .  A
C140        C424   1.398       .  A
C140        C430   1.397       .  A
C141        C142   1.417       .  A
C142        C143   1.395       .  A
C142        H151   1.077       .  S
C143        C144   1.395       .  A
C143        H152   1.083       .  S
C144        C430   1.395       .  A
C144        C387   1.469       .  S
C145        C710   1.397       .  A
C145        C714   1.395       .  A
C145        H153   1.085       .  S
C154        C155   1.396       .  A
C154        C444   1.398       .  A
C154        C390   1.473       .  S
C155        C156   1.394       .  A
C155        H168   1.084       .  S
C156        C157   1.416       .  A
C156        H169   1.078       .  S
C157        C163   1.426       .  A
C157        C443   1.422       .  A
C158        C160   1.400   1_556  A
C158        C159   1.404       .  A
C158        C727   1.422       .  A
C159        C724   1.398       .  A
C159        H170   1.085       .  S
C160        C161   1.391       .  A
C160        H171   1.084       .  S
C161        C732   1.400   1_554  A
C161        H172   1.084       .  S
C162        C163   1.421       .  A
C162        C167   1.407       .  A
C162        C446   1.400       .  A
C163        C164   1.410       .  A
C164        C165   1.392       .  A
C164        H173   1.078       .  S
C165        C166   1.406       .  A
C165        H174   1.082       .  S
C166        C167   1.406       .  A
C167        H175   1.082       .  S
C176        C181   1.401       .  A
C176        C462   1.398       .  A
C176        C388   1.487       .  S
C177        C178   1.401       .  A
C177        C746   1.399       .  A
C177        H190   1.083       .  S
C178        C749   1.418       .  A
C178        H191   1.077   1_556  S
C179        C185   1.434       .  A
C179        C180   1.422       .  A
C179        C463   1.418       .  A
C180        C182   1.399       .  A
C180        C181   1.405       .  A
C181        H192   1.084       .  S
C182        C183   1.390       .  A
C182        H193   1.084       .  S
C183        C184   1.399       .  A
C183        H194   1.084       .  S
C184        C185   1.425       .  A
C184        C189   1.408       .  A
C185        C186   1.416       .  A
C186        C187   1.399       .  A
C186        H480   1.077       .  S
C187        C188   1.399       .  A
C187        H196   1.084       .  S
C188        C189   1.398       .  A
C189        H197   1.085       .  S
H195        C756   1.077   1_554  S
C198        C199   1.402       .  A
C198        C488   1.399       .  A
C198        C290   1.483       .  S
C199        C200   1.392       .  A
C199        H212   1.083       .  S
C200        C201   1.410       .  A
C200        H213   1.079       .  S
C201        C207   1.424       .  A
C201        C487   1.423       .  A
C202        C204   1.399   1_556  A
C202        C203   1.407       .  A
C202        C771   1.423       .  A
C203        C768   1.399       .  A
C203        H214   1.084   1_556  S
C204        C205   1.392       .  A
C204        H215   1.084       .  S
C205        C776   1.401   1_554  A
C205        H216   1.084       .  S
C206        C207   1.418       .  A
C206        C211   1.401       .  A
C206        C490   1.401       .  A
C207        C208   1.416       .  A
C208        C209   1.397       .  A
C208        H217   1.079       .  S
C209        C210   1.398       .  A
C209        H218   1.083       .  S
C210        C211   1.403       .  A
C211        H219   1.084       .  S
C220        C221   1.398       .  A
C220        C225   1.397       .  A
C221        C222   1.399       .  A
C221        H234   1.084       .  S
C222        C223   1.417       .  A
C222        H520   1.078       .  S
C223        C229   1.429       .  A
C223        C224   1.423       .  A
C224        C226   1.398       .  A
C224        C225   1.401       .  A
C225        H236   1.085       .  S
C226        C227   1.387       .  A
C226        H237   1.084       .  S
C227        C228   1.398       .  A
C227        H238   1.084       .  S
C228        C229   1.424       .  A
C228        C233   1.401       .  A
C229        C515   1.415       .  A
C230        C231   1.397       .  A
C230        C799   1.415   1_554  A
C230        H239   1.078       .  S
C231        C802   1.399   1_554  A
C231        H240   1.083       .  S
C232        C233   1.397       .  A
C232        C516   1.399       .  A
C233        H241   1.085       .  S
H235        C792   1.078   1_554  S
C242        C247   1.395       .  A
C242        C528   1.397       .  A
C243        C812   1.397   1_554  A
C243        C814   1.399       .  A
C243        H256   1.083       .  S
C244        C245   1.418       .  A
C244        C528   1.399       .  A
C244        H542   1.077       .  S
C245        C251   1.428       .  A
C245        C246   1.422       .  A
C246        C248   1.396       .  A
C246        C247   1.395       .  A
C247        H258   1.085       .  S
C248        C249   1.384       .  A
C248        H259   1.084       .  S
C249        C250   1.398       .  A
C249        H260   1.084       .  S
C250        C251   1.421       .  A
C250        C255   1.399       .  A
C251        C252   1.413       .  A
C252        C253   1.397       .  A
C252        H261   1.078       .  S
C253        C254   1.405       .  A
C253        H262   1.083       .  S
C254        C255   1.405       .  A
C255        H263   1.077       .  S
H257        C814   1.077       .  S
C264        C265   1.401       .  A
C264        C269   1.400       .  A
C265        C266   1.395       .  A
C265        H278   1.083       .  S
C266        C267   1.413       .  A
C266        H279   1.078       .  S
C267        C273   1.430       .  A
C267        C268   1.424       .  A
C268        C269   1.408       .  A
C268        C555   1.400       .  A
C269        H280   1.084       .  S
C270        C271   1.391       .  A
C270        C838   1.400   1_554  A
C270        H281   1.084       .  S
C271        C842   1.400       .  A
C271        H282   1.084       .  S
C272        C273   1.420       .  A
C272        C556   1.400       .  A
C272        C562   1.403       .  A
C273        C274   1.417       .  A
C274        C275   1.400       .  A
C274        H283   1.078       .  S
C275        C276   1.401       .  A
C275        H284   1.083       .  S
C276        C562   1.405       .  A
C276        C286   1.496       .  S
C277        C842   1.404       .  A
C277        C846   1.405   1_554  A
C277        H285   1.084       .  S
C286        C291   1.409       .  A
C287        C571   1.421   1_565  A
C287        C288   1.396       .  A
C287        C527   1.474       .  S
C288        C289   1.396       .  A
C288        H293   1.085       .  S
C289        C575   1.417   1_565  A
C289        C517   1.480       .  S
C290        C291   1.405       .  A
C291        H292   1.084       .  S
C294        C295   1.528       .  S
C294        C300   1.531       .  S
C294        C298   1.540       .  S
C294        C539   1.527       .  S
C295        H302   1.087       .  S
C295        C296   1.362       .  D
C296        C297   1.543       .  S
C296        C325   1.469       .  S
C297        C301   1.546       .  S
C297        C299   1.538       .  S
C297        H303   1.111       .  S
C298        H304   1.081       .  S
C298        C299   1.364       .  D
C299        C326   1.474       .  S
C300        H305   1.086       .  S
C300        C301   1.367       .  D
C301        C473   1.479       .  S
N306        N307   1.325       .  A
N306        N312   1.317       .  A
N306       Mn335   2.210       .  S
N307        C314   1.354       .  A
N308        N310   1.316       .  A
N308       Mn324   2.187       .  S
N309        N593   1.314       .  A
N309        C315   1.349       .  A
N310       Mn335   2.201       .  S
N311        N595   1.323       .  A
N311        C315   1.353       .  A
N312        N313   1.315       .  A
N312       Mn324   2.197       .  S
N313        C314   1.350       .  A
C314        C368   1.471       .  S
C315        C365   1.464       .  S
N316        N322   1.316       .  A
N316       Mn346   2.185       .  S
N317        N601   1.314       .  A
N317        C325   1.350       .  A
N318        N319   1.326       .  A
N318        N320   1.316       .  A
N318       Mn324   2.213   1_655  S
N319        C326   1.355       .  A
N320        N321   1.314       .  A
N320       Mn346   2.189       .  S
N321        C326   1.349       .  A
N322       Mn324   2.207   1_655  S
N323        N607   1.325       .  A
N323        C325   1.353       .  A
Mn324      Cl348   2.530       .  S
N327        N333   1.315       .  A
N327       Mn335   2.215   1_545  S
N328        N612   1.326       .  A
N328        C336   1.357       .  A
N329        N331   1.314       .  A
N329        N330   1.310       .  A
N329       Mn347   2.171       .  S
N330        C337   1.346       .  A
N331        N332   1.326       .  A
N331       Mn335   2.204   1_545  S
N332        C337   1.356       .  A
N333       Mn347   2.177       .  S
N334        N618   1.312       .  A
N334        C336   1.347       .  A
Mn335      Cl348   2.569       .  S
C336        C380   1.471       .  S
C337        C377   1.466       .  S
N338        N339   1.326       .  A
N338        N344   1.313       .  A
N338       Mn346   2.208   1_545  S
N339        C349   1.356       .  A
N340        N342   1.314       .  A
N340       Mn347   2.179   1_655  S
N341        N625   1.315       .  A
N341        C350   1.348       .  A
N342       Mn346   2.223   1_545  S
N343        N627   1.327       .  A
N343        C350   1.358       .  A
N344        N345   1.314       .  A
N344       Mn347   2.185   1_655  S
N345        C349   1.350       .  A
Mn346      Cl348   2.554   1_655  S
Mn347      Cl348   2.511   1_545  S
C349        C356   1.474       .  S
C350        C353   1.476       .  S
C351        C352   1.539       .  S
C351        C357   1.528       .  S
C351        C355   1.530       .  S
C351        C451   1.528       .  S
C352        H359   1.085       .  S
C352        C353   1.370       .  D
C353        C354   1.541       .  S
C354        C358   1.547       .  S
C354        C356   1.544       .  S
C354        H360   1.111       .  S
C355        H361   1.086       .  S
C355        C356   1.361       .  D
C357        H362   1.086       .  S
C357        C358   1.368       .  D
C358        C549   1.485       .  S
C363        C364   1.538       .  S
C363        C369   1.528       .  S
C363        C367   1.532       .  S
C363        C417   1.521       .  S
C364        H371   1.083       .  S
C364        C365   1.362       .  D
C365        C366   1.534       .  S
C366        C370   1.542       .  S
C366        C368   1.543       .  S
C366        H372   1.111       .  S
C367        H373   1.087       .  S
C367        C368   1.364       .  D
C369        H374   1.086       .  S
C369        C370   1.366       .  D
C370        C505   1.476       .  S
C375        C376   1.525       .  S
C375        C381   1.526       .  S
C375        C379   1.538       .  S
C375        C395   1.526       .  S
C376        H383   1.087       .  S
C376        C377   1.362       .  D
C377        C378   1.540       .  S
C378        C382   1.547       .  S
C378        C380   1.537       .  S
C378        H384   1.111       .  S
C379        H385   1.083       .  S
C379        C380   1.366       .  D
C381        H386   1.086       .  S
C381        C382   1.369       .  D
C382        C495   1.480       .  S
C387        C388   1.416   1_455  A
C387        C392   1.399       .  A
C388        C389   1.403       .  A
C389        C390   1.403       .  A
C389        H394   1.084       .  S
C390        C391   1.412   1_655  A
C391        C392   1.396       .  A
C392        H393   1.084       .  S
C395        C396   1.405       .  A
C395        C400   1.404       .  A
C396        C397   1.396       .  A
C396        H409   1.083       .  S
C397        C398   1.413       .  A
C397        H410   1.077       .  S
C398        C404   1.429       .  A
C398        C399   1.421       .  A
C399        C401   1.398       .  A
C399        C400   1.401       .  A
C400        H411   1.080       .  S
C401        C687   1.386       .  A
C401        H697   1.084       .  S
C402        H413   1.084       .  S
C403        C687   1.398       .  A
C403        C404   1.422       .  A
C403        C693   1.399       .  A
C404        C405   1.418       .  A
C405        C406   1.399       .  A
C405        H414   1.077       .  S
C406        C407   1.396       .  A
C406        H415   1.083       .  S
C407        C693   1.396       .  A
C407        C676   1.477       .  S
C408        H416   1.085       .  S
C417        C418   1.403       .  A
C417        C422   1.405       .  A
C418        C419   1.394       .  A
C418        H431   1.083       .  S
C419        C420   1.413       .  A
C419        H432   1.077       .  S
C420        C426   1.425       .  A
C420        C421   1.420       .  A
C421        C423   1.399       .  A
C421        C422   1.399       .  A
C422        H433   1.080       .  S
C423        C709   1.386       .  A
C423        H434   1.084       .  S
C424        H435   1.084       .  S
C425        C709   1.397       .  A
C425        C426   1.423       .  A
C425        C715   1.397       .  A
C426        C427   1.417       .  A
C427        C428   1.395       .  A
C427        H436   1.077       .  S
C428        C429   1.395       .  A
C428        H437   1.083       .  S
C429        C715   1.395       .  A
C429        C672   1.469       .  S
C430        H438   1.085       .  S
C439        C440   1.396       .  A
C439        C729   1.398       .  A
C439        C675   1.473       .  S
C440        C441   1.394       .  A
C440        H453   1.084       .  S
C441        C442   1.416       .  A
C441        H454   1.078       .  S
C442        C448   1.427       .  A
C442        C728   1.422       .  A
C443        C445   1.400       .  A
C443        C444   1.404       .  A
C444        H455   1.085       .  S
C445        C446   1.391       .  A
C445        H456   1.084       .  S
C446        H457   1.084       .  S
C447        C731   1.400       .  A
C447        C448   1.421       .  A
C447        C452   1.407       .  A
C448        C449   1.410       .  A
C449        C450   1.392       .  A
C449        H458   1.078       .  S
C450        C451   1.406       .  A
C450        H459   1.082       .  S
C451        C452   1.406       .  A
C452        H460   1.082       .  S
C461        C747   1.398       .  A
C461        C466   1.401       .  A
C461        C673   1.488       .  S
C462        C463   1.400       .  A
C462        H475   1.083       .  S
C463        H476   1.077       .  S
C464        C748   1.418       .  A
C464        C470   1.433       .  A
C464        C465   1.422       .  A
C465        C467   1.399       .  A
C465        C466   1.405       .  A
C466        H477   1.084       .  S
C467        C468   1.390       .  A
C467        H478   1.084       .  S
C468        C469   1.399       .  A
C468        H479   1.084       .  S
C469        C470   1.425       .  A
C469        C474   1.408       .  A
C470        C471   1.416       .  A
C471        C472   1.398       .  A
C471        H765   1.077       .  S
C472        C473   1.399       .  A
C472        H481   1.084       .  S
C473        C474   1.398       .  A
C474        H482   1.085       .  S
C483        C484   1.401       .  A
C483        C773   1.399       .  A
C483        C575   1.483       .  S
C484        C485   1.392       .  A
C484        H497   1.083       .  S
C485        C486   1.410       .  A
C485        H498   1.079       .  S
C486        C492   1.424       .  A
C486        C772   1.423       .  A
C487        C489   1.399       .  A
C487        C488   1.407       .  A
C488        H499   1.084       .  S
C489        C490   1.392       .  A
C489        H500   1.084       .  S
C490        H501   1.084       .  S
C491        C775   1.401       .  A
C491        C492   1.418       .  A
C491        C496   1.401       .  A
C492        C493   1.416       .  A
C493        C494   1.397       .  A
C493        H502   1.079       .  S
C494        C495   1.398       .  A
C494        H503   1.083       .  S
C495        C496   1.403       .  A
C496        H504   1.084       .  S
C505        C506   1.398       .  A
C505        C510   1.397       .  A
C506        C507   1.399       .  A
C506        H519   1.083       .  S
C507        C508   1.417       .  A
C507        H805   1.078       .  S
C508        C514   1.429       .  A
C508        C509   1.422       .  A
C509        C511   1.398       .  A
C509        C510   1.401       .  A
C510        H521   1.085       .  S
C511        C512   1.387       .  A
C511        H522   1.084       .  S
C512        C513   1.398       .  A
C512        H523   1.084       .  S
C513        C514   1.424       .  A
C513        C518   1.401       .  A
C514        C800   1.415       .  A
C515        C516   1.397       .  A
C515        H524   1.078       .  S
C516        H525   1.083       .  S
C517        C801   1.399       .  A
C517        C518   1.397       .  A
C518        H526   1.085       .  S
C527        C813   1.397       .  A
C527        C532   1.395       .  A
C528        H541   1.083       .  S
C529        C813   1.399       .  A
C529        C530   1.418       .  A
C529        H827   1.077       .  S
C530        C536   1.428       .  A
C530        C531   1.422       .  A
C531        C533   1.396       .  A
C531        C532   1.395       .  A
C532        H543   1.085       .  S
C533        C534   1.384       .  A
C533        H544   1.084       .  S
C534        C535   1.398       .  A
C534        H545   1.084       .  S
C535        C536   1.421       .  A
C535        C540   1.399       .  A
C536        C537   1.413       .  A
C537        C538   1.397       .  A
C537        H546   1.077       .  S
C538        C539   1.405       .  A
C538        H547   1.083       .  S
C539        C540   1.405       .  A
C540        H548   1.077       .  S
C549        C550   1.401       .  A
C549        C554   1.400       .  A
C550        C551   1.395       .  A
C550        H563   1.083       .  S
C551        C552   1.413       .  A
C551        H564   1.078       .  S
C552        C558   1.430       .  A
C552        C553   1.424       .  A
C553        C840   1.400       .  A
C553        C554   1.408       .  A
C554        H565   1.085       .  S
C555        C556   1.391       .  A
C555        H566   1.084       .  S
C556        H567   1.084       .  S
C557        C841   1.400       .  A
C557        C558   1.420       .  A
C557        C847   1.403       .  A
C558        C559   1.417       .  A
C559        C560   1.399       .  A
C559        H568   1.078       .  S
C560        C561   1.400       .  A
C560        H569   1.083       .  S
C561        C847   1.405       .  A
C561        C571   1.496       .  S
C562        H570   1.083       .  S
C571        C576   1.409       .  A
C572        C573   1.396       .  A
C572        C812   1.474       .  S
C573        C574   1.396       .  A
C573        H578   1.085   1_556  S
C574        C802   1.480       .  S
C575        C576   1.405       .  A
C576        H577   1.084       .  S
C579        C580   1.528       .  S
C579        C585   1.532       .  S
C579        C583   1.540       .  S
C579        C824   1.527       .  S
C580        H587   1.087   1_556  S
C580        C581   1.362       .  D
C581        C582   1.543       .  S
C581        C610   1.469   1_556  S
C582        C586   1.546       .  S
C582        C584   1.538       .  S
C582        H588   1.111       .  S
C583        H589   1.081       .  S
C583        C584   1.364       .  D
C584        C611   1.474       .  S
C585        H590   1.086       .  S
C585        C586   1.367       .  D
C586        C758   1.480       .  S
N591        N592   1.325       .  A
N591        N597   1.317       .  A
N591       Mn620   2.210       .  S
N592        C599   1.354       .  A
N593        N595   1.316       .  A
N593       Mn609   2.188       .  S
N594        C600   1.349       .  A
N595       Mn620   2.199       .  S
N596        C600   1.352       .  A
N597        N598   1.315       .  A
N597       Mn609   2.197       .  S
N598        C599   1.350       .  A
C599        C653   1.471       .  S
C600        C650   1.464   1_554  S
N601        N607   1.316       .  A
N601       Mn631   2.185       .  S
N602        C610   1.349       .  A
N603        N604   1.326       .  A
N603        N605   1.316       .  A
N603       Mn609   2.214   1_655  S
N604        C611   1.355       .  A
N605        N606   1.314       .  A
N605       Mn631   2.190       .  S
N606        C611   1.349       .  A
N607       Mn609   2.207   1_655  S
N608        C610   1.354       .  A
Mn609      Cl633   2.530       .  S
N612        N618   1.315       .  A
N612       Mn620   2.215   1_545  S
N613        C621   1.357       .  A
N614        N616   1.314       .  A
N614        N615   1.309       .  A
N614       Mn632   2.170       .  S
N615        C622   1.346       .  A
N616        N617   1.326       .  A
N616       Mn620   2.203   1_545  S
N617        C622   1.356       .  A
N618       Mn632   2.177       .  S
N619        C621   1.347       .  A
Mn620      Cl633   2.569       .  S
C621        C665   1.471   1_554  S
C622        C662   1.465       .  S
N623        N624   1.326       .  A
N623        N629   1.313       .  A
N623       Mn631   2.208   1_545  S
N624        C634   1.356       .  A
N625        N627   1.314       .  A
N625       Mn632   2.179   1_655  S
N626        C635   1.348       .  A
N627       Mn631   2.224   1_545  S
N628        C635   1.358       .  A
N629        N630   1.314       .  A
N629       Mn632   2.186   1_655  S
N630        C634   1.350       .  A
Mn631      Cl633   2.555   1_655  S
Mn632      Cl633   2.511   1_545  S
C634        C641   1.474       .  S
C635        C638   1.477   1_554  S
C636        C637   1.539       .  S
C636        C642   1.528       .  S
C636        C640   1.530       .  S
C636        C736   1.528       .  S
C637        H644   1.085   1_556  S
C637        C638   1.370       .  D
C638        C639   1.541       .  S
C639        C643   1.547       .  S
C639        C641   1.544       .  S
C639        H645   1.111       .  S
C640        H646   1.086       .  S
C640        C641   1.361       .  D
C642        H647   1.086       .  S
C642        C643   1.368       .  D
C643        C834   1.485       .  S
C648        C649   1.537       .  S
C648        C654   1.528       .  S
C648        C652   1.532       .  S
C648        C702   1.521       .  S
C649        H656   1.083   1_556  S
C649        C650   1.362       .  D
C650        C651   1.534       .  S
C651        C655   1.542       .  S
C651        C653   1.543       .  S
C651        H657   1.111       .  S
C652        H658   1.087       .  S
C652        C653   1.364       .  D
C654        H659   1.086       .  S
C654        C655   1.366       .  D
C655        C790   1.476       .  S
C660        C661   1.525       .  S
C660        C666   1.526       .  S
C660        C664   1.538       .  S
C660        C680   1.526       .  S
C661        H668   1.087       .  S
C661        C662   1.362       .  D
C662        C663   1.539       .  S
C663        C667   1.546       .  S
C663        C665   1.537       .  S
C663        H669   1.111       .  S
C664        H670   1.083   1_556  S
C664        C665   1.366       .  D
C666        H671   1.086       .  S
C666        C667   1.369       .  D
C667        C780   1.480       .  S
C672        C673   1.416   1_455  A
C672        C677   1.399       .  A
C673        C674   1.404       .  A
C674        C675   1.403       .  A
C674        H679   1.084       .  S
C675        C676   1.412   1_655  A
C676        C677   1.396       .  A
C677        H678   1.084       .  S
C680        C681   1.405       .  A
C680        C685   1.404       .  A
C681        C682   1.396       .  A
C681        H694   1.083       .  S
C682        C683   1.413       .  A
C682        H695   1.077       .  S
C683        C689   1.429       .  A
C683        C684   1.421       .  A
C684        C686   1.398   1_556  A
C684        C685   1.401       .  A
C685        H696   1.080   1_556  S
C687        H698   1.084       .  S
C688        C689   1.422       .  A
C689        C690   1.418       .  A
C690        C691   1.399       .  A
C690        H699   1.077       .  S
C691        C692   1.397       .  A
C691        H700   1.083       .  S
C693        H701   1.085       .  S
C702        C703   1.402       .  A
C702        C707   1.405       .  A
C703        C704   1.394       .  A
C703        H716   1.083       .  S
C704        C705   1.413       .  A
C704        H717   1.077       .  S
C705        C711   1.425       .  A
C705        C706   1.420       .  A
C706        C708   1.399   1_556  A
C706        C707   1.399       .  A
C707        H718   1.080   1_556  S
C708        H719   1.084       .  S
C709        H720   1.084       .  S
C710        C711   1.423       .  A
C711        C712   1.417       .  A
C712        C713   1.395       .  A
C712        H721   1.077       .  S
C713        C714   1.395       .  A
C713        H722   1.083       .  S
C715        H723   1.085       .  S
C724        C725   1.396       .  A
C725        C726   1.394       .  A
C725        H738   1.084       .  S
C726        C727   1.416       .  A
C726        H739   1.078       .  S
C727        C733   1.426       .  A
C728        C730   1.400       .  A
C728        C729   1.404       .  A
C729        H740   1.085       .  S
C730        C731   1.391       .  A
C730        H741   1.084       .  S
C731        H742   1.084       .  S
C732        C733   1.421       .  A
C732        C737   1.407       .  A
C733        C734   1.410       .  A
C734        C735   1.392       .  A
C734        H743   1.078       .  S
C735        C736   1.406       .  A
C735        H744   1.082       .  S
C736        C737   1.406       .  A
C737        H745   1.082   1_556  S
C746        C751   1.401       .  A
C747        C748   1.400       .  A
C747        H760   1.083       .  S
C748        H761   1.077       .  S
C749        C755   1.434       .  A
C749        C750   1.422       .  A
C750        C752   1.399       .  A
C750        C751   1.405       .  A
C751        H762   1.084       .  S
C752        C753   1.390       .  A
C752        H763   1.084       .  S
C753        C754   1.399       .  A
C753        H764   1.084       .  S
C754        C755   1.425       .  A
C754        C759   1.408       .  A
C755        C756   1.416       .  A
C756        C757   1.399       .  A
C757        C758   1.399       .  A
C757        H766   1.084   1_556  S
C758        C759   1.398       .  A
C759        H767   1.085       .  S
C768        C769   1.402       .  A
C769        C770   1.392       .  A
C769        H782   1.083       .  S
C770        C771   1.410       .  A
C770        H783   1.079       .  S
C771        C777   1.424       .  A
C772        C774   1.399       .  A
C772        C773   1.407       .  A
C773        H784   1.084       .  S
C774        C775   1.392       .  A
C774        H785   1.084       .  S
C775        H786   1.084       .  S
C776        C777   1.418       .  A
C776        C781   1.401       .  A
C777        C778   1.416       .  A
C778        C779   1.397       .  A
C778        H787   1.079       .  S
C779        C780   1.398       .  A
C779        H788   1.083       .  S
C780        C781   1.403       .  A
C781        H789   1.084   1_556  S
C790        C791   1.398       .  A
C790        C795   1.397       .  A
C791        C792   1.399       .  A
C791        H804   1.083   1_556  S
C792        C793   1.417       .  A
C793        C799   1.429       .  A
C793        C794   1.422       .  A
C794        C796   1.398       .  A
C794        C795   1.401       .  A
C795        H806   1.085       .  S
C796        C797   1.387       .  A
C796        H807   1.084       .  S
C797        C798   1.398       .  A
C797        H808   1.084       .  S
C798        C799   1.424       .  A
C798        C803   1.401       .  A
C800        C801   1.397       .  A
C800        H809   1.078       .  S
C801        H810   1.083       .  S
C802        C803   1.397       .  A
C803        H811   1.085       .  S
C812        C817   1.395       .  A
C813        H826   1.083       .  S
C814        C815   1.418   1_554  A
C815        C821   1.428       .  A
C815        C816   1.422       .  A
C816        C818   1.396       .  A
C816        C817   1.395       .  A
C817        H828   1.085       .  S
C818        C819   1.384       .  A
C818        H829   1.084       .  S
C819        C820   1.398       .  A
C819        H830   1.084       .  S
C820        C821   1.421       .  A
C820        C825   1.400       .  A
C821        C822   1.413   1_556  A
C822        C823   1.397   1_554  A
C822        H831   1.077       .  S
C823        C824   1.405       .  A
C823        H832   1.083   1_556  S
C824        C825   1.405       .  A
C825        H833   1.077       .  S
C834        C835   1.401       .  A
C834        C839   1.400       .  A
C835        C836   1.396       .  A
C835        H848   1.083       .  S
C836        C837   1.413       .  A
C836        H849   1.078       .  S
C837        C843   1.431       .  A
C837        C838   1.424       .  A
C838        C839   1.408       .  A
C839        H850   1.085   1_556  S
C840        C841   1.391       .  A
C840        H851   1.084       .  S
C841        H852   1.084       .  S
C842        C843   1.420   1_554  A
C843        C844   1.417       .  A
C844        C845   1.400       .  A
C844        H853   1.078       .  S
C845        C846   1.400       .  A
C845        H854   1.083       .  S
C847        H855   1.084       .  S
