geometry optimzed in LAMMPS
_audit_creation_date              2020-11-30 
_audit_creation_method            'lammps2cif' 
_symmetry_space_group_name_H-M    'P1' 
_symmetry_Int_Tables_number       1 
_symmetry_cell_setting            triclinic 
loop_ 
_symmetry_equiv_pos_as_xyz 
  x,y,z 
_cell_length_a                    58.14172253827469 
_cell_length_b                    59.02178135555963 
_cell_length_c                    20.05376084466805 
_cell_angle_alpha                 90.77059910858365 
_cell_angle_beta                  86.90461103420165 
_cell_angle_gamma                 119.7500714818885 
loop_ 
_atom_site_label 
_atom_site_type_symbol 
_atom_site_fract_x 
_atom_site_fract_y 
_atom_site_fract_z 
_atom_site_charge 
In1        In  0.24844431  0.07968119  0.41656057     1.36870
C2          C  0.28522162  0.07630784  0.48085629     0.76980
O3          O  0.26547473  0.11929561  0.46020774    -0.61460
O4          O  0.22355506  0.09766714  0.45664188    -0.52370
C5          C  0.26783356  0.10192539  0.29821174     0.69650
O6          O  0.27821679  0.09134857  0.32994363    -0.47230
C7          C  0.21167722  0.02965981  0.41243377     0.74350
O8          O  0.28373101  0.07420897  0.41853450    -0.59090
O9          O  0.21683992  0.04222481  0.46592678    -0.49180
O10         O  0.26739134  0.07936781  0.51103841    -0.55520
C11         C  0.24373961  0.11873844  0.47219866     0.84530
O12         O  0.24625959  0.09908502  0.32432848    -0.57420
O13         O  0.22242478  0.04336834  0.36055458    -0.60710
In14       In  0.24518930  0.18371040  0.55784460     1.36870
C15         C  0.28610449  0.22498753  0.49619871     0.76980
O16         O  0.26426324  0.16206676  0.51249114    -0.61460
O17         O  0.22217462  0.14213486  0.51852655    -0.52370
C18         C  0.25726001  0.17693793  0.67895919     0.69650
O19         O  0.26754770  0.19889927  0.64992341    -0.47230
C20         C  0.20798496  0.19767670  0.55680774     0.74350
O21         O  0.28323113  0.22224013  0.55876786    -0.59090
O22         O  0.21689678  0.19203190  0.50459102    -0.49180
O23         O  0.26807325  0.20669090  0.46489844    -0.55520
C24         C  0.24307416  0.14140225  0.50167250     0.84530
O25         O  0.23876465  0.15866741  0.64850513    -0.57420
O26         O  0.21550670  0.19306506  0.61002551    -0.60710
In27       In  0.34919397  0.08215808  0.57309136     1.36870
C28         C  0.30694168  0.07665516  0.51465393     0.76980
O29         O  0.36650443  0.11809492  0.51013229    -0.61460
O30         O  0.39151575  0.10225436  0.52747440    -0.52370
C31         C  0.35593933  0.10823552  0.68499769     0.69650
O32         O  0.33336505  0.09243118  0.66492047    -0.47230
C33         C  0.33824878  0.03281417  0.58371707     0.74350
O34         O  0.31005524  0.08116731  0.57593378    -0.59090
O35         O  0.34736202  0.04587600  0.53028135    -0.49180
O36         O  0.32479942  0.07386150  0.48384456    -0.55520
C37         C  0.38898694  0.12009303  0.50038405     0.84530
O38         O  0.37511114  0.10819729  0.65226304    -0.57420
O39         O  0.33811335  0.04584313  0.63369027    -0.60710
In40       In  0.44801989  0.18494851  0.39873290     1.36870
C41         C  0.45277919  0.22646114  0.46488755     0.76980
O42         O  0.40718629  0.16094153  0.44413044    -0.61460
O43         O  0.43273164  0.14487399  0.44625956    -0.52370
C44         C  0.42646514  0.18112408  0.28264389     0.69650
O45         O  0.43385389  0.20044057  0.32043457    -0.47230
C46         C  0.99843412  0.19660768  0.38811655     0.74350
O47         O  0.45845716  0.22705324  0.40331401    -0.59090
O48         O  0.48493572  0.18983669  0.44268014    -0.49180
O49         O  0.44532417  0.20485448  0.49340173    -0.55520
C50         C  0.41024536  0.14231906  0.46226551     0.84530
O51         O  0.43103204  0.16362263  0.30298561    -0.57420
O52         O  0.48548559  0.19458964  0.33798599    -0.60710
C53         C  0.34117282  0.18579251  0.82824457    -0.03090
C54         C  0.34899667  0.18476590  0.12912945    -0.03090
In55       In  0.45123809  0.28807839  0.56042842     1.36870
C56         C  0.45361610  0.24880016  0.49964271     0.76980
O57         O  0.41490234  0.27070521  0.50332666    -0.61460
O58         O  0.43426657  0.31179336  0.51634866    -0.52370
C59         C  0.42262616  0.27322094  0.67410336     0.69650
O60         O  0.43749490  0.26433758  0.65417190    -0.47230
C61         C  0.00252722  0.32305565  0.56774976     0.74350
O62         O  0.44737399  0.24815822  0.56094730    -0.59090
O63         O  0.99030624  0.31988247  0.51547390    -0.49180
O64         O  0.45953246  0.26980585  0.46986899    -0.55520
C65         C  0.41485735  0.29167751  0.49352222     0.84530
O66         O  0.42532912  0.29256560  0.64117836    -0.57420
O67         O  0.48793826  0.31100252  0.61830976    -0.60710
In68       In  0.35128386  0.28769548  0.40106173     1.36870
C69         C  0.30886043  0.24749120  0.46258733     0.76980
O70         O  0.37292964  0.27016216  0.44617399    -0.61460
O71         O  0.39208277  0.31161123  0.44336163    -0.52370
C72         C  0.35985756  0.27293518  0.28214820     0.69650
O73         O  0.33691353  0.26693357  0.30523523    -0.47230
C74         C  0.33904907  0.32543982  0.40274909     0.74350
O75         O  0.31210773  0.25003994  0.40007048    -0.59090
O76         O  0.34287768  0.31647507  0.45482470    -0.49180
O77         O  0.32696503  0.26565611  0.49386548    -0.55520
C78         C  0.39293983  0.29145725  0.46001758     0.84530
O79         O  0.37862098  0.28952036  0.31536295    -0.57420
O80         O  0.34446690  0.31737758  0.34913773    -0.60710
In81       In  0.07837898  0.24526645  0.38838193     1.36690
C82         C  0.07583621  0.28408833  0.45063065     0.76980
O83         O  0.04101552  0.22252010  0.33387889    -0.61460
O84         O  0.04043796  0.21274763  0.43544441    -0.52370
C85         C  0.10212437  0.25728941  0.26793019     0.69650
O86         O  0.08768848  0.26629038  0.29073943    -0.47230
C87         C  0.11537439  0.24278083  0.45559775     0.74350
O88         O  0.08545851  0.28641568  0.39173259    -0.59090
O89         O  0.09575867  0.22231002  0.43491927    -0.49180
O90         O  0.06668943  0.26177462  0.47663974    -0.55520
C91         C  0.02738242  0.20986145  0.38490512     0.84530
O92         O  0.10196585  0.23974688  0.30385322    -0.57420
O93         O  0.11572904  0.26364978  0.44152460    -0.60710
In94       In  0.17899169  0.24847154  0.55326269     1.36870
C95         C  0.22365743  0.28718219  0.49641995     0.76980
O96         O  0.18643709  0.21964436  0.60749294    -0.61460
O97         O  0.19058251  0.22113086  0.50187232    -0.52370
C98         C  0.17533201  0.26567123  0.67413879     0.69650
O99         O  0.19085115  0.27940469  0.62673743    -0.47230
C100        C  0.13694357  0.24346597  0.49203389     0.74350
O101        O  0.22031035  0.28248365  0.55822458    -0.59090
O102        O  0.13808372  0.22370742  0.51047376    -0.49180
O103        O  0.20469787  0.27124586  0.46262146    -0.55520
C104        C  0.19358627  0.21219536  0.55530855     0.84530
O105        O  0.15950606  0.24223489  0.65935802    -0.57420
O106        O  0.15647368  0.26486634  0.50658859    -0.60710
In107      In  0.28760774  0.45417035  0.57861974     1.36870
C108        C  0.25035794  0.45696081  0.51308994     0.76980
O109        O  0.31186479  0.49090020  0.63615540    -0.61460
O110        O  0.32087373  0.99129354  0.53234884    -0.52370
C111        C  0.26745268  0.42792758  0.69160234     0.69650
O112        O  0.25893325  0.44154398  0.66606388    -0.47230
C113        C  0.29191131  0.41615441  0.51740692     0.74350
O114        O  0.25047792  0.45690216  0.57578767    -0.59090
O115        O  0.31234237  0.43697492  0.53321289    -0.49180
O116        O  0.26987505  0.45669669  0.48344498    -0.55520
C117        C  0.32448796  0.00424226  0.58487623     0.84530
O118        O  0.28908298  0.43095932  0.66534748    -0.57420
O119        O  0.27024042  0.41533741  0.53239288    -0.60710
In120      In  0.28792621  0.35379014  0.41388228     1.36870
C121        C  0.24712782  0.31022535  0.46713746     0.76980
O122        O  0.31701832  0.34569793  0.35419386    -0.61460
O123        O  0.31692147  0.34514607  0.45982633    -0.52370
C124        C  0.26982312  0.36367736  0.30657200     0.69650
O125        O  0.26168344  0.34109641  0.32961118    -0.47230
C126        C  0.29211494  0.39410207  0.48365357     0.74350
O127        O  0.25130398  0.31445249  0.40513165    -0.59090
O128        O  0.31208152  0.39517896  0.45223653    -0.49180
O129        O  0.26412101  0.32795977  0.50213928    -0.55520
C130        C  0.32514162  0.34031943  0.40529862     0.84530
O131        O  0.29022079  0.38149483  0.33231990    -0.57420
O132        O  0.27112285  0.37242355  0.48169121    -0.60710
C133        C  0.17900802  0.34274397  0.84367436    -0.03090
C134        C  0.18471767  0.34761821  0.14371497    -0.03090
In135      In  0.08161971  0.34598211  0.55982968     1.36870
C136        C  0.07659062  0.30588208  0.48771427     0.76980
O137        O  0.04370456  0.33695309  0.61822276    -0.61460
O138        O  0.04582773  0.34311285  0.51371469    -0.52370
C139        C  0.10284900  0.34610766  0.67378149     0.69650
O140        O  0.09328689  0.32693559  0.63534828    -0.47230
C141        C  0.12180749  0.38937441  0.50625640     0.74350
O142        O  0.06909703  0.30373564  0.54848339    -0.59090
O143        O  0.10005699  0.38817069  0.52446521    -0.49180
O144        O  0.08587941  0.32841856  0.46268597    -0.55520
C145        C  0.03154610  0.33587665  0.56713427     0.84530
O146        O  0.10027086  0.36514245  0.65591001    -0.57420
O147        O  0.12254384  0.36869611  0.51511844    -0.60710
In148      In  0.18729160  0.45171581  0.41510915     1.36870
C149        C  0.22854960  0.45614852  0.47790144     0.76980
O150        O  0.19811264  0.48887652  0.35958776    -0.61460
O151        O  0.18994508  0.48743630  0.46404860    -0.52370
C152        C  0.18035997  0.42801722  0.29881830     0.69650
O153        O  0.20285381  0.44099058  0.32278228    -0.47230
C154        C  0.14487252  0.41246708  0.47619923     0.74350
O155        O  0.22791859  0.45565381  0.41519768    -0.59090
O156        O  0.14479102  0.43287736  0.45816674    -0.49180
O157        O  0.20841321  0.45487296  0.50831894    -0.55520
C158        C  0.19835717  0.00116013  0.41153138     0.84530
O159        O  0.16185734  0.42949720  0.33080753    -0.57420
O160        O  0.16653764  0.41279236  0.46476851    -0.60710
C161        C  0.17559507  0.36723413  0.17282317    -0.06720
C162        C  0.19280773  0.39384650  0.15379798    -0.17850
C163        C  0.19367075  0.41457886  0.19049059     0.10470
C164        C  0.17548490  0.40921740  0.24478948    -0.06650
C165        C  0.15549379  0.38352718  0.25767987    -0.17880
C166        C  0.15570014  0.36238643  0.22529051     0.10510
S167        S  0.21900047  0.44776054  0.17020323    -0.32850
S168        S  0.13381226  0.33122325  0.26546454    -0.32850
H169        H  0.11403866  0.33692086  0.28921177     0.28510
H170        H  0.23151373  0.44197614  0.11598865     0.28510
H171        H  0.20766543  0.39842141  0.11367549     0.19100
H172        H  0.14184556  0.37977223  0.30055661     0.19110
C173        C  0.11775633  0.34661321  0.73153171    -0.06720
C174        C  0.14051354  0.36976933  0.74635802    -0.17850
C175        C  0.15890585  0.36997116  0.78913703     0.10470
C176        C  0.15580087  0.34568434  0.81438141    -0.06650
C177        C  0.13044517  0.32370072  0.80735356    -0.17880
C178        C  0.11178811  0.32376139  0.76650756     0.10510
S179        S  0.18436803  0.40239986  0.81062505    -0.32850
S180        S  0.08061515  0.29381532  0.76107779    -0.32850
H181        H  0.06563427  0.30601387  0.74941867     0.28510
H182        H  0.18797238  0.39578306  0.87449371     0.28510
H183        H  0.14444923  0.38787439  0.72288240     0.19100
H184        H  0.12425529  0.30610299  0.83338423     0.19110
C185        C  0.18040297  0.34606091  0.92152236    -0.06720
C186        C  0.19725326  0.33911404  0.95312440    -0.17850
C187        C  0.19773003  0.33749917  0.02254577     0.10470
C188        C  0.18639833  0.34924392  0.06497194    -0.06650
C189        C  0.17060963  0.35759958  0.03312094    -0.17880
C190        C  0.16589484  0.35454753  0.96484907     0.10510
S191        S  0.21244365  0.31937686  0.05301609    -0.32850
S192        S  0.13917069  0.35965554  0.94121582    -0.32850
H193        H  0.14344532  0.37938389  0.98734470     0.28510
H194        H  0.21066337  0.30516687  0.99471383     0.28510
H195        H  0.20931808  0.33322699  0.92346169     0.19100
H196        H  0.15880043  0.36380118  0.06291327     0.19110
C197        C  0.21092924  0.35767419  0.18080887    -0.06720
C198        C  0.20727401  0.35592665  0.25138637    -0.17850
C199        C  0.22770428  0.36212482  0.29266117     0.10470
C200        C  0.25271939  0.36837305  0.26458322    -0.06650
C201        C  0.25819626  0.37386935  0.19592398    -0.17880
C202        C  0.23788982  0.37063780  0.15414157     0.10510
S203        S  0.21996351  0.35916439  0.38153876    -0.32850
S204        S  0.24778532  0.38548761  0.07175242    -0.32850
H205        H  0.27534698  0.39679260  0.07686323     0.28510
H206        H  0.24436084  0.38103409  0.39578396     0.28510
H207        H  0.18773490  0.34811973  0.27539347     0.19100
H208        H  0.27811032  0.38035896  0.17525875     0.19110
C209        C  0.24948375  0.40540340  0.73427547    -0.06720
C210        C  0.22976850  0.38487599  0.70027399    -0.17850
C211        C  0.20752263  0.36469720  0.73310770     0.10470
C212        C  0.20472425  0.36428665  0.80506748    -0.06650
C213        C  0.22629319  0.38431187  0.83902420    -0.17880
C214        C  0.24824102  0.40495651  0.80436197     0.10510
S215        S  0.18388222  0.34211091  0.67531992    -0.32850
S216        S  0.27306192  0.43073471  0.85214611    -0.32850
H217        H  0.29330676  0.44053826  0.80119299     0.28510
H218        H  0.16512070  0.32189209  0.71619309     0.28510
H219        H  0.23101437  0.38539884  0.64602469     0.19100
H220        H  0.22571186  0.38513662  0.89283847     0.19110
C221        C  0.17699619  0.27746551  0.74029004    -0.06720
C222        C  0.15447983  0.27206060  0.78131840    -0.17850
C223        C  0.15609508  0.29008740  0.83050596     0.10470
C224        C  0.17846672  0.31591458  0.82672589    -0.06650
C225        C  0.20221878  0.31678734  0.80143300    -0.17880
C226        C  0.20166299  0.29789314  0.75866184     0.10510
S227        S  0.13326488  0.27667043  0.90299721    -0.32850
S228        S  0.23301850  0.30205288  0.72524907    -0.32850
H229        H  0.22326168  0.27547794  0.71136689     0.28510
H230        H  0.14660764  0.29770887  0.94525530     0.28510
H231        H  0.13603058  0.25402453  0.77571634     0.19100
H232        H  0.22150519  0.33337342  0.80986493     0.19110
C233        C  0.12163058  0.27027284  0.21163462    -0.06720
C234        C  0.14749501  0.27652374  0.22280811    -0.17850
C235        C  0.16934159  0.29971640  0.19814154     0.10470
C236        C  0.16484934  0.31786918  0.16026460    -0.06650
C237        C  0.13898614  0.30739395  0.13608545    -0.17880
C238        C  0.11749395  0.28410977  0.16182284     0.10510
S239        S  0.19996593  0.30231487  0.22499777    -0.32850
S240        S  0.08480601  0.27482689  0.13599152    -0.32850
H241        H  0.07287948  0.24890826  0.15984984     0.28510
H242        H  0.21878412  0.31954559  0.17856215     0.28510
H243        H  0.15062573  0.26466466  0.25811047     0.19100
H244        H  0.13441020  0.31885274  0.10355275     0.19110
C245        C  0.35493755  0.21050461  0.16462868    -0.06720
C246        C  0.35406372  0.23118883  0.13179177    -0.17850
C247        C  0.35728163  0.25331757  0.16694110     0.10470
C248        C  0.36367269  0.25597173  0.23440465    -0.06650
C249        C  0.36732369  0.23710683  0.26507322    -0.17880
C250        C  0.36170192  0.21403050  0.23345579     0.10510
S251        S  0.35197947  0.27685204  0.12428187    -0.32850
S252        S  0.35971760  0.18835815  0.28673945    -0.32850
H253        H  0.37709689  0.20472668  0.33444494     0.28510
H254        H  0.36504831  0.29728447  0.16916130     0.28510
H255        H  0.34924453  0.22955826  0.08000538     0.19100
H256        H  0.37132015  0.23896956  0.31768227     0.19110
C257        C  0.35967791  0.21262126  0.79070536    -0.06720
C258        C  0.37957181  0.23439955  0.82404785    -0.17850
C259        C  0.40006031  0.25604364  0.78868567     0.10470
C260        C  0.39942141  0.25751854  0.71914363    -0.06650
C261        C  0.37747810  0.23879141  0.68726948    -0.17880
C262        C  0.35818656  0.21625359  0.72036362     0.10510
S263        S  0.42686731  0.28058349  0.83435647    -0.32850
S264        S  0.33383063  0.19343482  0.66525505    -0.32850
H265        H  0.33584566  0.17155187  0.68130686     0.28510
H266        H  0.43621350  0.30022869  0.78472937     0.28510
H267        H  0.38031560  0.23439836  0.87764182     0.19100
H268        H  0.37684636  0.24040498  0.63358613     0.19110
C269        C  0.34408087  0.18703763  0.90617231    -0.06720
C270        C  0.32212163  0.18154119  0.95028041    -0.17850
C271        C  0.32246639  0.18025769  0.01990287     0.10470
C272        C  0.34600205  0.18487225  0.05092223    -0.06650
C273        C  0.36730813  0.18838835  0.00612755    -0.17880
C274        C  0.36713796  0.19023480  0.93644374     0.10510
S275        S  0.29090815  0.17070697  0.06326842    -0.32850
S276        S  0.39740255  0.19710474  0.88885401    -0.32850
H277        H  0.40981582  0.19118803  0.93864112     0.28510
H278        H  0.27492156  0.15346127  0.01461533     0.28510
H279        H  0.30347853  0.17716739  0.93100440     0.19100
H280        H  0.38520650  0.19049287  0.02481526     0.19110
C281        C  0.41228053  0.17944507  0.22214876    -0.06720
C282        C  0.41830969  0.20274075  0.19016345    -0.17850
C283        C  0.40056417  0.20429078  0.14860390     0.10470
C284        C  0.37431832  0.18193681  0.14310651    -0.06650
C285        C  0.37200826  0.15771930  0.16204414    -0.17880
C286        C  0.39022319  0.15631690  0.20235739     0.10510
S287        S  0.41308038  0.23661312  0.11229772    -0.32850
S288        S  0.38263402  0.12463233  0.23249807    -0.32850
H289        H  0.38106518  0.13083596  0.29998950     0.28510
H290        H  0.39456276  0.23102183  0.06447299     0.28510
H291        H  0.43646312  0.22042882  0.20104717     0.19100
H292        H  0.35567770  0.13931122  0.15003458     0.19110
C293        C  0.35905394  0.12750201  0.73638085    -0.06720
C294        C  0.33996380  0.11998960  0.78953317    -0.17850
C295        C  0.33573614  0.13842065  0.82477546     0.10470
C296        C  0.34898863  0.16502390  0.80216463    -0.06650
C297        C  0.37103708  0.17240907  0.75574445    -0.17880
C298        C  0.37618819  0.15423916  0.72349190     0.10510
S299        S  0.31095806  0.12589652  0.89283850    -0.32850
S300        S  0.40297965  0.16649318  0.66023648    -0.32850
H301        H  0.41336065  0.15110855  0.68284643     0.28510
H302        H  0.33007163  0.13171085  0.94018231     0.28510
H303        H  0.32724504  0.09942391  0.80140312     0.19100
H304        H  0.38461609  0.19254953  0.74235483     0.19110
C305        C  0.26878118  0.17319729  0.73906783    -0.06720
C306        C  0.28243436  0.19473654  0.77989432    -0.17850
C307        C  0.30345748  0.19750630  0.81698598     0.10470
C308        C  0.31226846  0.17874537  0.81038357    -0.06650
C309        C  0.29510125  0.15515714  0.77819208    -0.17880
C310        C  0.27330560  0.15200379  0.74444617     0.10510
S311        S  0.32032165  0.22674346  0.86599464    -0.32850
S312        S  0.25504422  0.12207807  0.69975755    -0.32850
H313        H  0.23023120  0.11984436  0.71730984     0.28510
H314        H  0.30074885  0.23412124  0.86504903     0.28510
H315        H  0.27825091  0.21065678  0.77775431     0.19100
H316        H  0.29956032  0.13967923  0.77173855     0.19110
C317        C  0.32211856  0.16246368  0.16352767    -0.06720
C318        C  0.31314219  0.13622242  0.14560376    -0.17850
C319        C  0.29515326  0.11529797  0.18753726     0.10470
C320        C  0.28217027  0.12017182  0.24231854    -0.06650
C321        C  0.28570530  0.14502975  0.25028554    -0.17880
C322        C  0.30459142  0.16608344  0.21165720     0.10510
S323        S  0.29027698  0.08323938  0.16989756    -0.32850
S324        S  0.30181393  0.19502490  0.22826799    -0.32850
H325        H  0.30398424  0.20351052  0.16249522     0.28510
H326        H  0.26537594  0.06931786  0.20441979     0.28510
H327        H  0.32156268  0.13203037  0.10086581     0.19100
H328        H  0.27431961  0.14839584  0.28992610     0.19110
In329      In  0.24844431  0.57968122  0.41656065     1.36870
C330        C  0.28522160  0.57630785  0.48085638     0.76980
O331        O  0.26547472  0.61929564  0.46020788    -0.61460
O332        O  0.22355505  0.59766717  0.45664194    -0.52370
C333        C  0.26783362  0.60192543  0.29821187     0.69650
O334        O  0.27821684  0.59134861  0.32994382    -0.47230
C335        C  0.21167722  0.52965985  0.41243376     0.74350
O336        O  0.28373098  0.57420896  0.41853459    -0.59090
O337        O  0.21683992  0.54222484  0.46592680    -0.49180
O338        O  0.26739134  0.57936785  0.51103850    -0.55520
C339        C  0.24373959  0.61873846  0.47219876     0.84530
O340        O  0.24625965  0.59908508  0.32432854    -0.57420
O341        O  0.22242477  0.54336840  0.36055460    -0.60710
In342      In  0.24518925  0.68371041  0.55784469     1.36870
C343        C  0.28610446  0.72498753  0.49619878     0.76980
O344        O  0.26426321  0.66206678  0.51249127    -0.61460
O345        O  0.22217458  0.64213486  0.51852665    -0.52370
C346        C  0.25725993  0.67693793  0.67895931     0.69650
O347        O  0.26754760  0.69889928  0.64992357    -0.47230
C348        C  0.20798492  0.69767672  0.55680779     0.74350
O349        O  0.28323113  0.72224010  0.55876792    -0.59090
O350        O  0.21689671  0.69203187  0.50459110    -0.49180
O351        O  0.26807317  0.70669093  0.46489853    -0.55520
C352        C  0.24307413  0.64140226  0.50167261     0.84530
O353        O  0.23876459  0.65866741  0.64850521    -0.57420
O354        O  0.21550668  0.69306511  0.61002558    -0.60710
In355      In  0.34919397  0.58215810  0.57309135     1.36870
C356        C  0.30694167  0.57665517  0.51465400     0.76980
O357        O  0.36650440  0.61809487  0.51013205    -0.61460
O358        O  0.39151576  0.60225438  0.52747443    -0.52370
C359        C  0.35593934  0.60823558  0.68499759     0.69650
O360        O  0.33336507  0.59243121  0.66492046    -0.47230
C361        C  0.33824878  0.53281419  0.58371709     0.74350
O362        O  0.31005525  0.58116734  0.57593383    -0.59090
O363        O  0.34736202  0.54587601  0.53028137    -0.49180
O364        O  0.32479939  0.57386148  0.48384461    -0.55520
C365        C  0.38898693  0.62009301  0.50038393     0.84530
O366        O  0.37511116  0.60819738  0.65226291    -0.57420
O367        O  0.33811335  0.54584315  0.63369029    -0.60710
In368      In  0.44801988  0.68494849  0.39873280     1.36870
C369        C  0.45277916  0.72646110  0.46488751     0.76980
O370        O  0.40718625  0.66094148  0.44413018    -0.61460
O371        O  0.43273164  0.64487399  0.44625954    -0.52370
C372        C  0.42646515  0.68112408  0.28264376     0.69650
O373        O  0.43385387  0.70044055  0.32043450    -0.47230
C374        C  0.99843410  0.69660767  0.38811641     0.74350
O375        O  0.45845716  0.72705323  0.40331397    -0.59090
O376        O  0.48493570  0.68983666  0.44268000    -0.49180
O377        O  0.44532414  0.70485444  0.49340165    -0.55520
C378        C  0.41024534  0.64231903  0.46226537     0.84530
O379        O  0.43103207  0.66362263  0.30298545    -0.57420
O380        O  0.48548557  0.69458964  0.33798586    -0.60710
C381        C  0.34117278  0.68579255  0.82824450    -0.03090
C382        C  0.34899670  0.68476589  0.12912932    -0.03090
In383      In  0.45123806  0.78807835  0.56042842     1.36870
C384        C  0.45361608  0.74880012  0.49964269     0.76980
O385        O  0.41490230  0.77070515  0.50332667    -0.61460
O386        O  0.43426655  0.81179331  0.51634858    -0.52370
C387        C  0.42262611  0.77322095  0.67410334     0.69650
O388        O  0.43749482  0.76433754  0.65417191    -0.47230
C389        C  0.00252719  0.82305559  0.56774985     0.74350
O390        O  0.44737393  0.74815816  0.56094727    -0.59090
O391        O  0.99030622  0.81988246  0.51547401    -0.49180
O392        O  0.45953246  0.76980582  0.46986899    -0.55520
C393        C  0.41485733  0.79167746  0.49352218     0.84530
O394        O  0.42532912  0.79256562  0.64117832    -0.57420
O395        O  0.48793823  0.81100241  0.61830979    -0.60710
In396      In  0.35128383  0.78769543  0.40106172     1.36870
C397        C  0.30886040  0.74749118  0.46258737     0.76980
O398        O  0.37292961  0.77016211  0.44617394    -0.61460
O399        O  0.39208274  0.81161118  0.44336161    -0.52370
C400        C  0.35985752  0.77293512  0.28214819     0.69650
O401        O  0.33691349  0.76693347  0.30523529    -0.47230
C402        C  0.33904907  0.82543979  0.40274907     0.74350
O403        O  0.31210766  0.75003994  0.40007053    -0.59090
O404        O  0.34287767  0.81647504  0.45482468    -0.49180
O405        O  0.32696504  0.76565606  0.49386550    -0.55520
C406        C  0.39293980  0.79145719  0.46001753     0.84530
O407        O  0.37862094  0.78952033  0.31536289    -0.57420
O408        O  0.34446689  0.81737754  0.34913771    -0.60710
In409      In  0.07837896  0.74526643  0.38838178     1.36690
C410        C  0.07583619  0.78408829  0.45063062     0.76980
O411        O  0.04101550  0.72252012  0.33387875    -0.61460
O412        O  0.04043794  0.71274759  0.43544422    -0.52370
C413        C  0.10212434  0.75728940  0.26793004     0.69650
O414        O  0.08768847  0.76629038  0.29073930    -0.47230
C415        C  0.11537439  0.74278083  0.45559754     0.74350
O416        O  0.08545845  0.78641565  0.39173253    -0.59090
O417        O  0.09575865  0.72231001  0.43491914    -0.49180
O418        O  0.06668943  0.76177458  0.47663969    -0.55520
C419        C  0.02738240  0.70986144  0.38490496     0.84530
O420        O  0.10196580  0.73974685  0.30385304    -0.57420
O421        O  0.11572904  0.76364978  0.44152431    -0.60710
In422      In  0.17899167  0.74847157  0.55326256     1.36870
C423        C  0.22365743  0.78718220  0.49641986     0.76980
O424        O  0.18643708  0.71964441  0.60749292    -0.61460
O425        O  0.19058246  0.72113084  0.50187228    -0.52370
C426        C  0.17533195  0.76567127  0.67413857     0.69650
O427        O  0.19085112  0.77940472  0.62673726    -0.47230
C428        C  0.13694357  0.74346599  0.49203368     0.74350
O429        O  0.22031033  0.78248366  0.55822449    -0.59090
O430        O  0.13808369  0.72370743  0.51047366    -0.49180
O431        O  0.20469788  0.77124587  0.46262135    -0.55520
C432        C  0.19358623  0.71219537  0.55530855     0.84530
O433        O  0.15950599  0.74223494  0.65935780    -0.57420
O434        O  0.15647370  0.76486636  0.50658828    -0.60710
In435      In  0.28760777  0.95417033  0.57861975     1.36870
C436        C  0.25035794  0.95696077  0.51309003     0.76980
O437        O  0.31186482  0.99090019  0.63615538    -0.61460
O438        O  0.32087372  0.49129355  0.53234886    -0.52370
C439        C  0.26745276  0.92792757  0.69160238     0.69650
O440        O  0.25893333  0.94154398  0.66606399    -0.47230
C441        C  0.29191133  0.91615440  0.51740689     0.74350
O442        O  0.25047792  0.95690210  0.57578775    -0.59090
O443        O  0.31234239  0.93697491  0.53321285    -0.49180
O444        O  0.26987506  0.95669668  0.48344503    -0.55520
C445        C  0.32448795  0.50424227  0.58487625     0.84530
O446        O  0.28908304  0.93095930  0.66534743    -0.57420
O447        O  0.27024045  0.91533739  0.53239289    -0.60710
In448      In  0.28792623  0.85379013  0.41388223     1.36870
C449        C  0.24712783  0.81022535  0.46713738     0.76980
O450        O  0.31701834  0.84569791  0.35419383    -0.61460
O451        O  0.31692148  0.84514604  0.45982630    -0.52370
C452        C  0.26982315  0.86367736  0.30657194     0.69650
O453        O  0.26168347  0.84109640  0.32961111    -0.47230
C454        C  0.29211497  0.89410205  0.48365353     0.74350
O455        O  0.25130400  0.81445249  0.40513158    -0.59090
O456        O  0.31208154  0.89517895  0.45223648    -0.49180
O457        O  0.26412101  0.82795976  0.50213922    -0.55520
C458        C  0.32514163  0.84031941  0.40529859     0.84530
O459        O  0.29022082  0.88149483  0.33231986    -0.57420
O460        O  0.27112287  0.87242355  0.48169116    -0.60710
C461        C  0.17900805  0.84274403  0.84367436    -0.03090
C462        C  0.18471768  0.84761820  0.14371498    -0.03090
In463      In  0.08161968  0.84598204  0.55982977     1.36870
C464        C  0.07659060  0.80588203  0.48771430     0.76980
O465        O  0.04370452  0.83695299  0.61822285    -0.61460
O466        O  0.04582771  0.84311282  0.51371481    -0.52370
C467        C  0.10284899  0.84610765  0.67378158     0.69650
O468        O  0.09328682  0.82693554  0.63534852    -0.47230
C469        C  0.12180746  0.88937435  0.50625649     0.74350
O470        O  0.06909705  0.80373558  0.54848345    -0.59090
O471        O  0.10005696  0.88817063  0.52446532    -0.49180
O472        O  0.08587936  0.82841850  0.46268601    -0.55520
C473        C  0.03154607  0.83587658  0.56713438     0.84530
O474        O  0.10027087  0.86514244  0.65590997    -0.57420
O475        O  0.12254381  0.86869604  0.51511850    -0.60710
In476      In  0.18729159  0.95171576  0.41510928     1.36870
C477        C  0.22854959  0.95614847  0.47790154     0.76980
O478        O  0.19811262  0.98887646  0.35958785    -0.61460
O479        O  0.18994509  0.98743627  0.46404870    -0.52370
C480        C  0.18035997  0.92801718  0.29881841     0.69650
O481        O  0.20285380  0.94099054  0.32278243    -0.47230
C482        C  0.14487250  0.91246702  0.47619933     0.74350
O483        O  0.22791857  0.95565377  0.41519779    -0.59090
O484        O  0.14479100  0.93287731  0.45816688    -0.49180
O485        O  0.20841320  0.95487290  0.50831906    -0.55520
C486        C  0.19835717  0.50116018  0.41153131     0.84530
O487        O  0.16185734  0.92949717  0.33080763    -0.57420
O488        O  0.16653761  0.91279229  0.46476859    -0.60710
C489        C  0.17559509  0.86723412  0.17282322    -0.06720
C490        C  0.19280776  0.89384650  0.15379808    -0.17850
C491        C  0.19367078  0.91457885  0.19049071     0.10470
C492        C  0.17548491  0.90921738  0.24478957    -0.06650
C493        C  0.15549379  0.88352716  0.25767991    -0.17880
C494        C  0.15570015  0.86238642  0.22529052     0.10510
S495        S  0.21900051  0.94776053  0.17020342    -0.32850
S496        S  0.13381227  0.83122323  0.26546453    -0.32850
H497        H  0.11403865  0.83692083  0.28921172     0.28510
H498        H  0.23151378  0.94197614  0.11598885     0.28510
H499        H  0.20766549  0.89842141  0.11367564     0.19100
H500        H  0.14184555  0.87977220  0.30055662     0.19110
C501        C  0.11775636  0.84661326  0.73153176    -0.06720
C502        C  0.14051365  0.86976938  0.74635766    -0.17850
C503        C  0.15890598  0.86997125  0.78913666     0.10470
C504        C  0.15580092  0.84568446  0.81438146    -0.06650
C505        C  0.13044515  0.82370090  0.80735415    -0.17880
C506        C  0.11178809  0.82376151  0.76650806     0.10510
S507        S  0.18436822  0.90239997  0.81062431    -0.32850
S508        S  0.08061505  0.79381549  0.76107876    -0.32850
H509        H  0.06563425  0.80601408  0.74941923     0.28510
H510        H  0.18797257  0.89578326  0.87449309     0.28510
H511        H  0.14444938  0.88787441  0.72288175     0.19100
H512        H  0.12425521  0.80610322  0.83338550     0.19110
C513        C  0.18040301  0.84606097  0.92152236    -0.06720
C514        C  0.19725320  0.83911397  0.95312441    -0.17850
C515        C  0.19772998  0.83749912  0.02254579     0.10470
C516        C  0.18639834  0.84924392  0.06497195    -0.06650
C517        C  0.17060971  0.85759968  0.03312095    -0.17880
C518        C  0.16589498  0.85454771  0.96484905     0.10510
S519        S  0.21244356  0.81937677  0.05301612    -0.32850
S520        S  0.13917102  0.85965601  0.94121573    -0.32850
H521        H  0.14344578  0.87938436  0.98734469     0.28510
H522        H  0.21066324  0.80516675  0.99471389     0.28510
H523        H  0.20931796  0.83322685  0.92346172     0.19100
H524        H  0.15880055  0.86380131  0.06291327     0.19110
C525        C  0.21092925  0.85767417  0.18080885    -0.06720
C526        C  0.20727404  0.85592665  0.25138635    -0.17850
C527        C  0.22770431  0.86212484  0.29266114     0.10470
C528        C  0.25271941  0.86837304  0.26458316    -0.06650
C529        C  0.25819627  0.87386932  0.19592391    -0.17880
C530        C  0.23788983  0.87063776  0.15414152     0.10510
S531        S  0.21996356  0.85916444  0.38153873    -0.32850
S532        S  0.24778532  0.88548754  0.07175233    -0.32850
H533        H  0.27534698  0.89679252  0.07686310     0.28510
H534        H  0.24436091  0.88103414  0.39578387     0.28510
H535        H  0.18773493  0.84811974  0.27539348     0.19100
H536        H  0.27811033  0.88035890  0.17525866     0.19110
C537        C  0.24948384  0.90540339  0.73427552    -0.06720
C538        C  0.22976860  0.88487597  0.70027403    -0.17850
C539        C  0.20752272  0.86469720  0.73310772     0.10470
C540        C  0.20472431  0.86428667  0.80506750    -0.06650
C541        C  0.22629324  0.88431188  0.83902424    -0.17880
C542        C  0.24824109  0.90495651  0.80436202     0.10510
S543        S  0.18388234  0.84211088  0.67531993    -0.32850
S544        S  0.27306198  0.93073471  0.85214616    -0.32850
H545        H  0.29330683  0.94053826  0.80119306     0.28510
H546        H  0.16512056  0.82189226  0.71619317     0.28510
H547        H  0.23101449  0.88539881  0.64602473     0.19100
H548        H  0.22571191  0.88513664  0.89283851     0.19110
C549        C  0.17699610  0.77746556  0.74028980    -0.06720
C550        C  0.15447971  0.77206068  0.78131799    -0.17850
C551        C  0.15609495  0.79008746  0.83050562     0.10470
C552        C  0.17846666  0.81591461  0.82672583    -0.06650
C553        C  0.20221871  0.81678731  0.80143305    -0.17880
C554        C  0.20166289  0.79789313  0.75866178     0.10510
S555        S  0.13326482  0.77667037  0.90299696    -0.32850
S556        S  0.23301840  0.80205280  0.72524915    -0.32850
H557        H  0.22326154  0.77547787  0.71136689     0.28510
H558        H  0.14660698  0.79770919  0.94525436     0.28510
H559        H  0.13603045  0.75402464  0.77571581     0.19100
H560        H  0.22150513  0.83337334  0.80986512     0.19110
C561        C  0.12163056  0.77027283  0.21163450    -0.06720
C562        C  0.14749499  0.77652372  0.22280804    -0.17850
C563        C  0.16934158  0.79971638  0.19814153     0.10470
C564        C  0.16484935  0.81786918  0.16026458    -0.06650
C565        C  0.13898616  0.80739396  0.13608539    -0.17880
C566        C  0.11749396  0.78410978  0.16182273     0.10510
S567        S  0.19996591  0.80231486  0.22499785    -0.32850
S568        S  0.08480602  0.77482690  0.13599136    -0.32850
H569        H  0.07287948  0.74890827  0.15984966     0.28510
H570        H  0.21878411  0.81954554  0.17856217     0.28510
H571        H  0.15062570  0.76466463  0.25811039     0.19100
H572        H  0.13441023  0.81885276  0.10355267     0.19110
C573        C  0.35493758  0.71050459  0.16462858    -0.06720
C574        C  0.35406375  0.73118882  0.13179169    -0.17850
C575        C  0.35728164  0.75331754  0.16694106     0.10470
C576        C  0.36367267  0.75597167  0.23440464    -0.06650
C577        C  0.36732366  0.73710677  0.26507319    -0.17880
C578        C  0.36170193  0.71403046  0.23345570     0.10510
S579        S  0.35197949  0.77685202  0.12428184    -0.32850
S580        S  0.35971764  0.68835810  0.28673931    -0.32850
H581        H  0.37709689  0.70472663  0.33444485     0.28510
H582        H  0.36504831  0.79728444  0.16916134     0.28510
H583        H  0.34924458  0.72955826  0.08000529     0.19100
H584        H  0.37132011  0.73896949  0.31768225     0.19110
C585        C  0.35967784  0.71262132  0.79070533    -0.06720
C586        C  0.37957176  0.73439960  0.82404783    -0.17850
C587        C  0.40006027  0.75604368  0.78868565     0.10470
C588        C  0.39942135  0.75751860  0.71914362    -0.06650
C589        C  0.37747802  0.73879150  0.68726949    -0.17880
C590        C  0.35818648  0.71625367  0.72036361     0.10510
S591        S  0.42686730  0.78058350  0.83435644    -0.32850
S592        S  0.33383052  0.69343493  0.66525506    -0.32850
H593        H  0.33584557  0.67155198  0.68130675     0.28510
H594        H  0.43621351  0.80022871  0.78472935     0.28510
H595        H  0.38031556  0.73439840  0.87764179     0.19100
H596        H  0.37684627  0.74040508  0.63358615     0.19110
C597        C  0.34408085  0.68703766  0.90617222    -0.06720
C598        C  0.32212161  0.68154118  0.95028037    -0.17850
C599        C  0.32246637  0.68025762  0.01990280     0.10470
C600        C  0.34600206  0.68487223  0.05092212    -0.06650
C601        C  0.36730814  0.68838839  0.00612740    -0.17880
C602        C  0.36713796  0.69023484  0.93644359     0.10510
S603        S  0.29090808  0.67070672  0.06326833    -0.32850
S604        S  0.39740254  0.69710480  0.88885379    -0.32850
H605        H  0.40981580  0.69118805  0.93864084     0.28510
H606        H  0.27492156  0.65346101  0.01461516     0.28510
H607        H  0.30347850  0.67716736  0.93100440     0.19100
H608        H  0.38520653  0.69049294  0.02481506     0.19110
C609        C  0.41228058  0.67944508  0.22214858    -0.06720
C610        C  0.41830973  0.70274077  0.19016336    -0.17850
C611        C  0.40056421  0.70429080  0.14860379     0.10470
C612        C  0.37431837  0.68193682  0.14310632    -0.06650
C613        C  0.37200835  0.65771932  0.16204379    -0.17880
C614        C  0.39022327  0.65631691  0.20235706     0.10510
S615        S  0.41308041  0.73661315  0.11229768    -0.32850
S616        S  0.38263416  0.62463233  0.23249754    -0.32850
H617        H  0.38106525  0.63083589  0.29998901     0.28510
H618        H  0.39456281  0.73102186  0.06447289     0.28510
H619        H  0.43646314  0.72042885  0.20104717     0.19100
H620        H  0.35567783  0.63931124  0.15003406     0.19110
C621        C  0.35905394  0.62750210  0.73638068    -0.06720
C622        C  0.33996383  0.61998968  0.78953306    -0.17850
C623        C  0.33573615  0.63842072  0.82477533     0.10470
C624        C  0.34898860  0.66502396  0.80216447    -0.06650
C625        C  0.37103702  0.67240914  0.75574420    -0.17880
C626        C  0.37618815  0.65423925  0.72349163     0.10510
S627        S  0.31095808  0.62589657  0.89283841    -0.32850
S628        S  0.40297956  0.66649328  0.66023607    -0.32850
H629        H  0.41336063  0.65110871  0.68284599     0.28510
H630        H  0.33007166  0.63171070  0.94018209     0.28510
H631        H  0.32724511  0.59942399  0.80140307     0.19100
H632        H  0.38461600  0.69254961  0.74235453     0.19110
C633        C  0.26878109  0.67319728  0.73906795    -0.06720
C634        C  0.28243426  0.69473654  0.77989446    -0.17850
C635        C  0.30345740  0.69750631  0.81698606     0.10470
C636        C  0.31226841  0.67874540  0.81038356    -0.06650
C637        C  0.29510120  0.65515717  0.77819208    -0.17880
C638        C  0.27330553  0.65200380  0.74444625     0.10510
S639        S  0.32032157  0.72674346  0.86599475    -0.32850
S640        S  0.25504415  0.62207807  0.69975765    -0.32850
H641        H  0.23023113  0.61984436  0.71730996     0.28510
H642        H  0.30074875  0.73412122  0.86504921     0.28510
H643        H  0.27825080  0.71065677  0.77775449     0.19100
H644        H  0.29956028  0.63967927  0.77173851     0.19110
C645        C  0.32211861  0.66246367  0.16352762    -0.06720
C646        C  0.31314226  0.63622240  0.14560384    -0.17850
C647        C  0.29515335  0.61529797  0.18753743     0.10470
C648        C  0.28217035  0.62017184  0.24231865    -0.06650
C649        C  0.28570536  0.64502977  0.25028553    -0.17880
C650        C  0.30459147  0.66608344  0.21165708     0.10510
S651        S  0.29027709  0.58323938  0.16989789    -0.32850
S652        S  0.30181392  0.69502488  0.22826758    -0.32850
H653        H  0.30398426  0.70351045  0.16249475     0.28510
H654        H  0.26537605  0.56931787  0.20442009     0.28510
H655        H  0.32156272  0.63203032  0.10086587     0.19100
H656        H  0.27431967  0.64839588  0.28992603     0.19110
In657      In  0.74844431  0.07968118  0.41656056     1.36870
C658        C  0.78522162  0.07630784  0.48085630     0.76980
O659        O  0.76547474  0.11929561  0.46020774    -0.61460
O660        O  0.72355507  0.09766714  0.45664186    -0.52370
C661        C  0.76783356  0.10192539  0.29821175     0.69650
O662        O  0.77821680  0.09134857  0.32994363    -0.47230
C663        C  0.71167722  0.02965980  0.41243374     0.74350
O664        O  0.78373101  0.07420896  0.41853450    -0.59090
O665        O  0.71683991  0.04222481  0.46592675    -0.49180
O666        O  0.76739134  0.07936780  0.51103840    -0.55520
C667        C  0.74373962  0.11873844  0.47219865     0.84530
O668        O  0.74625959  0.09908502  0.32432847    -0.57420
O669        O  0.72242479  0.04336834  0.36055455    -0.60710
In670      In  0.74518931  0.18371040  0.55784458     1.36870
C671        C  0.78610450  0.22498754  0.49619870     0.76980
O672        O  0.76426325  0.16206676  0.51249113    -0.61460
O673        O  0.72217463  0.14213486  0.51852652    -0.52370
C674        C  0.75726003  0.17693792  0.67895915     0.69650
O675        O  0.76754773  0.19889926  0.64992337    -0.47230
C676        C  0.70798497  0.19767670  0.55680772     0.74350
O677        O  0.78323112  0.22224015  0.55876784    -0.59090
O678        O  0.71689680  0.19203190  0.50459100    -0.49180
O679        O  0.76807328  0.20669088  0.46489842    -0.55520
C680        C  0.74307417  0.14140225  0.50167248     0.84530
O681        O  0.73876466  0.15866741  0.64850512    -0.57420
O682        O  0.71550671  0.19306506  0.61002549    -0.60710
In683      In  0.84919396  0.08215808  0.57309139     1.36870
C684        C  0.80694168  0.07665516  0.51465395     0.76980
O685        O  0.86650443  0.11809493  0.51013236    -0.61460
O686        O  0.89151575  0.10225435  0.52747439    -0.52370
C687        C  0.85593933  0.10823549  0.68499775     0.69650
O688        O  0.83336505  0.09243117  0.66492050    -0.47230
C689        C  0.83824878  0.03281417  0.58371708     0.74350
O690        O  0.81005524  0.08116731  0.57593379    -0.59090
O691        O  0.84736202  0.04587600  0.53028136    -0.49180
O692        O  0.82479942  0.07386149  0.48384458    -0.55520
C693        C  0.88898694  0.12009303  0.50038408     0.84530
O694        O  0.87511113  0.10819727  0.65226309    -0.57420
O695        O  0.83811333  0.04584312  0.63369028    -0.60710
In696      In  0.94801989  0.18494851  0.39873292     1.36870
C697        C  0.95277919  0.22646114  0.46488756     0.76980
O698        O  0.90718629  0.16094154  0.44413050    -0.61460
O699        O  0.93273163  0.14487399  0.44625956    -0.52370
C700        C  0.92646513  0.18112409  0.28264392     0.69650
O701        O  0.93385389  0.20044057  0.32043461    -0.47230
C702        C  0.49843413  0.19660768  0.38811653     0.74350
O703        O  0.95845715  0.22705324  0.40331401    -0.59090
O704        O  0.98493572  0.18983670  0.44268016    -0.49180
O705        O  0.94532418  0.20485449  0.49340175    -0.55520
C706        C  0.91024535  0.14231906  0.46226555     0.84530
O707        O  0.93103204  0.16362264  0.30298562    -0.57420
O708        O  0.98548558  0.19458964  0.33798601    -0.60710
C709        C  0.84117283  0.18579249  0.82824458    -0.03090
C710        C  0.84899667  0.18476591  0.12912946    -0.03090
In711      In  0.95123810  0.28807840  0.56042841     1.36870
C712        C  0.95361611  0.24880017  0.49964271     0.76980
O713        O  0.91490234  0.27070522  0.50332664    -0.61460
O714        O  0.93426657  0.31179337  0.51634867    -0.52370
C715        C  0.92262616  0.27322092  0.67410334     0.69650
O716        O  0.93749491  0.26433757  0.65417186    -0.47230
C717        C  0.50252722  0.32305563  0.56774976     0.74350
O718        O  0.94737400  0.24815823  0.56094730    -0.59090
O719        O  0.49030624  0.31988247  0.51547392    -0.49180
O720        O  0.95953245  0.26980585  0.46986897    -0.55520
C721        C  0.91485736  0.29167753  0.49352221     0.84530
O722        O  0.92532911  0.29256559  0.64117836    -0.57420
O723        O  0.98793826  0.31100254  0.61830976    -0.60710
In724      In  0.85128386  0.28769549  0.40106172     1.36870
C725        C  0.80886044  0.24749120  0.46258731     0.76980
O726        O  0.87292964  0.27016217  0.44617399    -0.61460
O727        O  0.89208277  0.31161125  0.44336162    -0.52370
C728        C  0.85985756  0.27293520  0.28214818     0.69650
O729        O  0.83691353  0.26693360  0.30523520    -0.47230
C730        C  0.83904907  0.32543983  0.40274908     0.74350
O731        O  0.81210775  0.25003993  0.40007047    -0.59090
O732        O  0.84287768  0.31647508  0.45482469    -0.49180
O733        O  0.82696501  0.26565613  0.49386547    -0.55520
C734        C  0.89293983  0.29145726  0.46001757     0.84530
O735        O  0.87862098  0.28952037  0.31536296    -0.57420
O736        O  0.84446690  0.31737758  0.34913772    -0.60710
In737      In  0.57837899  0.24526644  0.38838192     1.36690
C738        C  0.57583622  0.28408833  0.45063062     0.76980
O739        O  0.54101553  0.22252009  0.33387887    -0.61460
O740        O  0.54043796  0.21274762  0.43544440    -0.52370
C741        C  0.60212437  0.25728940  0.26793018     0.69650
O742        O  0.58768848  0.26629037  0.29073942    -0.47230
C743        C  0.61537439  0.24278082  0.45559776     0.74350
O744        O  0.58545852  0.28641568  0.39173257    -0.59090
O745        O  0.59575868  0.22231001  0.43491926    -0.49180
O746        O  0.56668943  0.26177462  0.47663971    -0.55520
C747        C  0.52738243  0.20986145  0.38490511     0.84530
O748        O  0.60196586  0.23974687  0.30385322    -0.57420
O749        O  0.61572904  0.26364977  0.44152462    -0.60710
In750      In  0.67899169  0.24847154  0.55326270     1.36870
C751        C  0.72365744  0.28718219  0.49641996     0.76980
O752        O  0.68643710  0.21964434  0.60749293    -0.61460
O753        O  0.69058252  0.22113086  0.50187231    -0.52370
C754        C  0.67533203  0.26567121  0.67413882     0.69650
O755        O  0.69085114  0.27940467  0.62673745    -0.47230
C756        C  0.63694357  0.24346596  0.49203391     0.74350
O757        O  0.72031035  0.28248365  0.55822459    -0.59090
O758        O  0.63808372  0.22370741  0.51047376    -0.49180
O759        O  0.70469787  0.27124585  0.46262147    -0.55520
C760        C  0.69358628  0.21219535  0.55530854     0.84530
O761        O  0.65950608  0.24223487  0.65935807    -0.57420
O762        O  0.65647368  0.26486633  0.50658864    -0.60710
In763      In  0.78760773  0.45417035  0.57861973     1.36870
C764        C  0.75035793  0.45696081  0.51308991     0.76980
O765        O  0.81186478  0.49090019  0.63615539    -0.61460
O766        O  0.82087372  0.99129353  0.53234883    -0.52370
C767        C  0.76745266  0.42792757  0.69160232     0.69650
O768        O  0.75893324  0.44154398  0.66606384    -0.47230
C769        C  0.79191130  0.41615441  0.51740692     0.74350
O770        O  0.75047791  0.45690217  0.57578764    -0.59090
O771        O  0.81234236  0.43697492  0.53321289    -0.49180
O772        O  0.76987504  0.45669669  0.48344496    -0.55520
C773        C  0.82448795  0.00424225  0.58487623     0.84530
O774        O  0.78908296  0.43095932  0.66534748    -0.57420
O775        O  0.77024042  0.41533740  0.53239287    -0.60710
In776      In  0.78792620  0.35379014  0.41388228     1.36870
C777        C  0.74712782  0.31022535  0.46713746     0.76980
O778        O  0.81701832  0.34569793  0.35419385    -0.61460
O779        O  0.81692147  0.34514607  0.45982633    -0.52370
C780        C  0.76982311  0.36367736  0.30657200     0.69650
O781        O  0.76168343  0.34109640  0.32961118    -0.47230
C782        C  0.79211494  0.39410206  0.48365357     0.74350
O783        O  0.75130398  0.31445249  0.40513166    -0.59090
O784        O  0.81208151  0.39517896  0.45223653    -0.49180
O785        O  0.76412100  0.32795977  0.50213929    -0.55520
C786        C  0.82514162  0.34031944  0.40529861     0.84530
O787        O  0.79022078  0.38149483  0.33231990    -0.57420
O788        O  0.77112284  0.37242355  0.48169120    -0.60710
C789        C  0.67900801  0.34274394  0.84367435    -0.03090
C790        C  0.68471766  0.34761820  0.14371494    -0.03090
In791      In  0.58161971  0.34598211  0.55982964     1.36870
C792        C  0.57659062  0.30588208  0.48771423     0.76980
O793        O  0.54370457  0.33695308  0.61822274    -0.61460
O794        O  0.54582773  0.34311284  0.51371467    -0.52370
C795        C  0.60284900  0.34610765  0.67378144     0.69650
O796        O  0.59328691  0.32693560  0.63534818    -0.47230
C797        C  0.62180749  0.38937441  0.50625637     0.74350
O798        O  0.56909702  0.30373563  0.54848335    -0.59090
O799        O  0.60005698  0.38817069  0.52446518    -0.49180
O800        O  0.58587942  0.32841855  0.46268593    -0.55520
C801        C  0.53154610  0.33587664  0.56713426     0.84530
O802        O  0.60027085  0.36514243  0.65591001    -0.57420
O803        O  0.62254384  0.36869611  0.51511841    -0.60710
In804      In  0.68729160  0.45171581  0.41510910     1.36870
C805        C  0.72854959  0.45614852  0.47790140     0.76980
O806        O  0.69811265  0.48887652  0.35958771    -0.61460
O807        O  0.68994507  0.48743630  0.46404854    -0.52370
C808        C  0.68035996  0.42801721  0.29881826     0.69650
O809        O  0.70285380  0.44099057  0.32278223    -0.47230
C810        C  0.64487252  0.41246708  0.47619920     0.74350
O811        O  0.72791858  0.45565380  0.41519764    -0.59090
O812        O  0.64479102  0.43287736  0.45816669    -0.49180
O813        O  0.70841321  0.45487297  0.50831890    -0.55520
C814        C  0.69835716  0.00116013  0.41153134     0.84530
O815        O  0.66185734  0.42949720  0.33080749    -0.57420
O816        O  0.66653764  0.41279235  0.46476848    -0.60710
C817        C  0.67559506  0.36723411  0.17282314    -0.06720
C818        C  0.69280771  0.39384649  0.15379793    -0.17850
C819        C  0.69367073  0.41457885  0.19049054     0.10470
C820        C  0.67548489  0.40921739  0.24478945    -0.06650
C821        C  0.65549378  0.38352717  0.25767985    -0.17880
C822        C  0.65570013  0.36238642  0.22529048     0.10510
S823        S  0.71900045  0.44776053  0.17020316    -0.32850
S824        S  0.63381226  0.33122323  0.26546451    -0.32850
H825        H  0.61403865  0.33692085  0.28921176     0.28510
H826        H  0.73151370  0.44197613  0.11598857     0.28510
H827        H  0.70766541  0.39842140  0.11367543     0.19100
H828        H  0.64184555  0.37977222  0.30055659     0.19110
C829        C  0.61775632  0.34661318  0.73153167    -0.06720
C830        C  0.64051351  0.36976930  0.74635809    -0.17850
C831        C  0.65890581  0.36997112  0.78913711     0.10470
C832        C  0.65580085  0.34568430  0.81438138    -0.06650
C833        C  0.63044518  0.32370066  0.80735338    -0.17880
C834        C  0.61178812  0.32376134  0.76650741     0.10510
S835        S  0.68436797  0.40239982  0.81062524    -0.32850
S836        S  0.58061518  0.29381526  0.76107750    -0.32850
H837        H  0.56563428  0.30601379  0.74941848     0.28510
H838        H  0.68797233  0.39578299  0.87449386     0.28510
H839        H  0.64444919  0.38787437  0.72288256     0.19100
H840        H  0.62425531  0.30610291  0.83338386     0.19110
C841        C  0.68040296  0.34606089  0.92152234    -0.06720
C842        C  0.69725329  0.33911406  0.95312437    -0.17850
C843        C  0.69773005  0.33749918  0.02254575     0.10470
C844        C  0.68639832  0.34924391  0.06497191    -0.06650
C845        C  0.67060960  0.35759954  0.03312091    -0.17880
C846        C  0.66589480  0.35454747  0.96484906     0.10510
S847        S  0.71244369  0.31937689  0.05301606    -0.32850
S848        S  0.63917060  0.35965539  0.94121582    -0.32850
H849        H  0.64344519  0.37938374  0.98734469     0.28510
H850        H  0.71066343  0.30516691  0.99471379     0.28510
H851        H  0.70931812  0.33322703  0.92346166     0.19100
H852        H  0.65880039  0.36380113  0.06291325     0.19110
C853        C  0.71092923  0.35767419  0.18080886    -0.06720
C854        C  0.70727400  0.35592664  0.25138635    -0.17850
C855        C  0.72770426  0.36212481  0.29266117     0.10470
C856        C  0.75271937  0.36837304  0.26458322    -0.06650
C857        C  0.75819625  0.37386936  0.19592399    -0.17880
C858        C  0.73788982  0.37063781  0.15414158     0.10510
S859        S  0.71996348  0.35916436  0.38153875    -0.32850
S860        S  0.74778532  0.38548763  0.07175244    -0.32850
H861        H  0.77534698  0.39679263  0.07686326     0.28510
H862        H  0.74436081  0.38103406  0.39578397     0.28510
H863        H  0.68773488  0.34811971  0.27539345     0.19100
H864        H  0.77811031  0.38035898  0.17525876     0.19110
C865        C  0.74948373  0.40540340  0.73427545    -0.06720
C866        C  0.72976847  0.38487599  0.70027396    -0.17850
C867        C  0.70752262  0.36469719  0.73310767     0.10470
C868        C  0.70472424  0.36428664  0.80506745    -0.06650
C869        C  0.72629317  0.38431186  0.83902417    -0.17880
C870        C  0.74824100  0.40495651  0.80436194     0.10510
S871        S  0.68388220  0.34211091  0.67531990    -0.32850
S872        S  0.77306190  0.43073470  0.85214609    -0.32850
H873        H  0.79330674  0.44053826  0.80119296     0.28510
H874        H  0.66512075  0.32189204  0.71619305     0.28510
H875        H  0.73101434  0.38539885  0.64602467     0.19100
H876        H  0.72571185  0.38513661  0.89283844     0.19110
C877        C  0.67699622  0.27746549  0.74029008    -0.06720
C878        C  0.65447986  0.27206056  0.78131850    -0.17850
C879        C  0.65609512  0.29008738  0.83050605     0.10470
C880        C  0.67846674  0.31591457  0.82672590    -0.06650
C881        C  0.70221880  0.31678734  0.80143296    -0.17880
C882        C  0.70166301  0.29789314  0.75866182     0.10510
S883        S  0.63326490  0.27667045  0.90299728    -0.32850
S884        S  0.73301852  0.30205289  0.72524900    -0.32850
H885        H  0.72326172  0.27547796  0.71136683     0.28510
H886        H  0.64660787  0.29770875  0.94525560     0.28510
H887        H  0.63603062  0.25402449  0.77571648     0.19100
H888        H  0.72150521  0.33337343  0.80986484     0.19110
C889        C  0.62163058  0.27027283  0.21163461    -0.06720
C890        C  0.64749502  0.27652373  0.22280809    -0.17850
C891        C  0.66934160  0.29971639  0.19814151     0.10470
C892        C  0.66484934  0.31786917  0.16026457    -0.06650
C893        C  0.63898614  0.30739394  0.13608543    -0.17880
C894        C  0.61749395  0.28410976  0.16182282     0.10510
S895        S  0.69996594  0.30231487  0.22499773    -0.32850
S896        S  0.58480601  0.27482687  0.13599152    -0.32850
H897        H  0.57287948  0.24890824  0.15984984     0.28510
H898        H  0.71878413  0.31954560  0.17856213     0.28510
H899        H  0.65062574  0.26466466  0.25811045     0.19100
H900        H  0.63441019  0.31885272  0.10355273     0.19110
C901        C  0.85493755  0.21050462  0.16462868    -0.06720
C902        C  0.85406372  0.23118884  0.13179177    -0.17850
C903        C  0.85728163  0.25331758  0.16694109     0.10470
C904        C  0.86367268  0.25597174  0.23440464    -0.06650
C905        C  0.86732369  0.23710685  0.26507322    -0.17880
C906        C  0.86170192  0.21403051  0.23345579     0.10510
S907        S  0.85197945  0.27685205  0.12428185    -0.32850
S908        S  0.85971760  0.18835816  0.28673946    -0.32850
H909        H  0.87709688  0.20472670  0.33444495     0.28510
H910        H  0.86504830  0.29728448  0.16916128     0.28510
H911        H  0.84924452  0.22955827  0.08000538     0.19100
H912        H  0.87132015  0.23896958  0.31768227     0.19110
C913        C  0.85967791  0.21262123  0.79070535    -0.06720
C914        C  0.87957180  0.23439954  0.82404783    -0.17850
C915        C  0.90006030  0.25604363  0.78868564     0.10470
C916        C  0.89942140  0.25751851  0.71914359    -0.06650
C917        C  0.87747811  0.23879136  0.68726943    -0.17880
C918        C  0.85818657  0.21625354  0.72036359     0.10510
S919        S  0.92686728  0.28058351  0.83435644    -0.32850
S920        S  0.83383065  0.19343476  0.66525502    -0.32850
H921        H  0.83584568  0.17155182  0.68130689     0.28510
H922        H  0.93621346  0.30022869  0.78472932     0.28510
H923        H  0.88031559  0.23439836  0.87764180     0.19100
H924        H  0.87684637  0.24040492  0.63358608     0.19110
C925        C  0.84408088  0.18703762  0.90617232    -0.06720
C926        C  0.82212163  0.18154118  0.95028042    -0.17850
C927        C  0.82246639  0.18025769  0.01990287     0.10470
C928        C  0.84600206  0.18487226  0.05092224    -0.06650
C929        C  0.86730814  0.18838837  0.00612757    -0.17880
C930        C  0.86713797  0.19023481  0.93644376     0.10510
S931        S  0.79090815  0.17070697  0.06326842    -0.32850
S932        S  0.89740257  0.19710476  0.88885404    -0.32850
H933        H  0.90981583  0.19118805  0.93864116     0.28510
H934        H  0.77492156  0.15346126  0.01461534     0.28510
H935        H  0.80347853  0.17716736  0.93100440     0.19100
H936        H  0.88520651  0.19049290  0.02481528     0.19110
C937        C  0.91228053  0.17944508  0.22214878    -0.06720
C938        C  0.91830969  0.20274076  0.19016349    -0.17850
C939        C  0.90056417  0.20429080  0.14860394     0.10470
C940        C  0.87431832  0.18193683  0.14310653    -0.06650
C941        C  0.87200827  0.15771932  0.16204413    -0.17880
C942        C  0.89022319  0.15631692  0.20235739     0.10510
S943        S  0.91308038  0.23661314  0.11229778    -0.32850
S944        S  0.88263403  0.12463234  0.23249802    -0.32850
H945        H  0.88106518  0.13083596  0.29998946     0.28510
H946        H  0.89456277  0.23102185  0.06447303     0.28510
H947        H  0.93646312  0.22042884  0.20104723     0.19100
H948        H  0.85567771  0.13931124  0.15003454     0.19110
C949        C  0.85905394  0.12750198  0.73638093    -0.06720
C950        C  0.83996379  0.11998957  0.78953321    -0.17850
C951        C  0.83573614  0.13842063  0.82477551     0.10470
C952        C  0.84898863  0.16502387  0.80216468    -0.06650
C953        C  0.87103709  0.17240904  0.75574454    -0.17880
C954        C  0.87618821  0.15423913  0.72349201     0.10510
S955        S  0.81095804  0.12589649  0.89283851    -0.32850
S956        S  0.90297969  0.16649315  0.66023665    -0.32850
H957        H  0.91336066  0.15110850  0.68284661     0.28510
H958        H  0.83007162  0.13171095  0.94018240     0.28510
H959        H  0.82724502  0.09942388  0.80140314     0.19100
H960        H  0.88461611  0.19254950  0.74235494     0.19110
C961        C  0.76878119  0.17319728  0.73906779    -0.06720
C962        C  0.78243437  0.19473653  0.77989430    -0.17850
C963        C  0.80345748  0.19750628  0.81698596     0.10470
C964        C  0.81226847  0.17874535  0.81038356    -0.06650
C965        C  0.79510126  0.15515713  0.77819206    -0.17880
C966        C  0.77330561  0.15200378  0.74444614     0.10510
S967        S  0.82032166  0.22674344  0.86599463    -0.32850
S968        S  0.75504425  0.12207806  0.69975748    -0.32850
H969        H  0.73023122  0.11984435  0.71730977     0.28510
H970        H  0.80074886  0.23412122  0.86504902     0.28510
H971        H  0.77825093  0.21065677  0.77775429     0.19100
H972        H  0.79956033  0.13967922  0.77173853     0.19110
C973        C  0.82211856  0.16246369  0.16352768    -0.06720
C974        C  0.81314220  0.13622243  0.14560377    -0.17850
C975        C  0.79515327  0.11529798  0.18753727     0.10470
C976        C  0.78217028  0.12017182  0.24231855    -0.06650
C977        C  0.78570530  0.14502975  0.25028556    -0.17880
C978        C  0.80459142  0.16608345  0.21165721     0.10510
S979        S  0.79027699  0.08323939  0.16989757    -0.32850
S980        S  0.80181393  0.19502490  0.22826800    -0.32850
H981        H  0.80398423  0.20351052  0.16249523     0.28510
H982        H  0.76537596  0.06931787  0.20441979     0.28510
H983        H  0.82156269  0.13203038  0.10086581     0.19100
H984        H  0.77431962  0.14839584  0.28992611     0.19110
In985      In  0.74844431  0.57968122  0.41656061     1.36870
C986        C  0.78522161  0.57630785  0.48085636     0.76980
O987        O  0.76547473  0.61929564  0.46020782    -0.61460
O988        O  0.72355506  0.59766716  0.45664191    -0.52370
C989        C  0.76783361  0.60192543  0.29821183     0.69650
O990        O  0.77821683  0.59134861  0.32994376    -0.47230
C991        C  0.71167722  0.52965985  0.41243370     0.74350
O992        O  0.78373099  0.57420896  0.41853456    -0.59090
O993        O  0.71683991  0.54222483  0.46592675    -0.49180
O994        O  0.76739134  0.57936784  0.51103846    -0.55520
C995        C  0.74373961  0.61873846  0.47219872     0.84530
O996        O  0.74625963  0.59908507  0.32432851    -0.57420
O997        O  0.72242479  0.54336840  0.36055454    -0.60710
In998      In  0.74518927  0.68371041  0.55784465     1.36870
C999        C  0.78610447  0.72498754  0.49619875     0.76980
O1000       O  0.76426322  0.66206678  0.51249121    -0.61460
O1001       O  0.72217460  0.64213487  0.51852660    -0.52370
C1002       C  0.75725995  0.67693793  0.67895925     0.69650
O1003       O  0.76754764  0.69889927  0.64992351    -0.47230
C1004       C  0.70798493  0.69767671  0.55680775     0.74350
O1005       O  0.78323113  0.72224011  0.55876789    -0.59090
O1006       O  0.71689673  0.69203188  0.50459106    -0.49180
O1007       O  0.76807320  0.70669092  0.46489849    -0.55520
C1008       C  0.74307414  0.64140227  0.50167255     0.84530
O1009       O  0.73876461  0.65866741  0.64850516    -0.57420
O1010       O  0.71550670  0.69306511  0.61002554    -0.60710
In1011     In  0.84919396  0.58215809  0.57309137     1.36870
C1012       C  0.80694167  0.57665516  0.51465399     0.76980
O1013       O  0.86650440  0.61809489  0.51013215    -0.61460
O1014       O  0.89151575  0.60225437  0.52747442    -0.52370
C1015       C  0.85593933  0.60823556  0.68499764     0.69650
O1016       O  0.83336506  0.59243120  0.66492048    -0.47230
C1017       C  0.83824877  0.53281418  0.58371710     0.74350
O1018       O  0.81005524  0.58116734  0.57593382    -0.59090
O1019       O  0.84736202  0.54587601  0.53028138    -0.49180
O1020       O  0.82479939  0.57386148  0.48384461    -0.55520
C1021       C  0.88898692  0.62009302  0.50038398     0.84530
O1022       O  0.87511115  0.60819735  0.65226297    -0.57420
O1023       O  0.83811333  0.54584314  0.63369030    -0.60710
In1024     In  0.94801987  0.68494850  0.39873283     1.36870
C1025       C  0.95277916  0.72646112  0.46488752     0.76980
O1026       O  0.90718626  0.66094149  0.44413027    -0.61460
O1027       O  0.93273163  0.64487399  0.44625954    -0.52370
C1028       C  0.92646514  0.68112408  0.28264380     0.69650
O1029       O  0.93385386  0.70044055  0.32043454    -0.47230
C1030       C  0.49843411  0.69660766  0.38811638     0.74350
O1031       O  0.95845715  0.72705323  0.40331399    -0.59090
O1032       O  0.98493570  0.68983666  0.44268003    -0.49180
O1033       O  0.94532414  0.70485446  0.49340168    -0.55520
C1034       C  0.91024534  0.64231904  0.46226542     0.84530
O1035       O  0.93103206  0.66362264  0.30298549    -0.57420
O1036       O  0.98548556  0.69458964  0.33798588    -0.60710
C1037       C  0.84117279  0.68579254  0.82824452    -0.03090
C1038       C  0.84899669  0.68476590  0.12912935    -0.03090
In1039     In  0.95123807  0.78807836  0.56042842     1.36870
C1040       C  0.95361608  0.74880013  0.49964270     0.76980
O1041       O  0.91490232  0.77070518  0.50332665    -0.61460
O1042       O  0.93426655  0.81179333  0.51634861    -0.52370
C1043       C  0.92262612  0.77322094  0.67410334     0.69650
O1044       O  0.93749483  0.76433755  0.65417189    -0.47230
C1045       C  0.50252718  0.82305557  0.56774984     0.74350
O1046       O  0.94737395  0.74815818  0.56094728    -0.59090
O1047       O  0.49030621  0.81988245  0.51547401    -0.49180
O1048       O  0.95953246  0.76980584  0.46986899    -0.55520
C1049       C  0.91485734  0.79167748  0.49352218     0.84530
O1050       O  0.92532911  0.79256562  0.64117833    -0.57420
O1051       O  0.98793823  0.81100244  0.61830980    -0.60710
In1052     In  0.85128385  0.78769545  0.40106171     1.36870
C1053       C  0.80886041  0.74749119  0.46258735     0.76980
O1054       O  0.87292962  0.77016213  0.44617394    -0.61460
O1055       O  0.89208275  0.81161120  0.44336161    -0.52370
C1056       C  0.85985754  0.77293515  0.28214818     0.69650
O1057       O  0.83691350  0.76693351  0.30523526    -0.47230
C1058       C  0.83904907  0.82543981  0.40274907     0.74350
O1059       O  0.81210769  0.75003994  0.40007050    -0.59090
O1060       O  0.84287768  0.81647505  0.45482468    -0.49180
O1061       O  0.82696503  0.76565608  0.49386548    -0.55520
C1062       C  0.89293981  0.79145722  0.46001754     0.84530
O1063       O  0.87862096  0.78952035  0.31536290    -0.57420
O1064       O  0.84446690  0.81737756  0.34913771    -0.60710
In1065     In  0.57837897  0.74526643  0.38838177     1.36690
C1066       C  0.57583619  0.78408829  0.45063059     0.76980
O1067       O  0.54101550  0.72252011  0.33387873    -0.61460
O1068       O  0.54043795  0.71274758  0.43544420    -0.52370
C1069       C  0.60212435  0.75728939  0.26793003     0.69650
O1070       O  0.58768848  0.76629037  0.29073929    -0.47230
C1071       C  0.61537439  0.74278082  0.45559754     0.74350
O1072       O  0.58545847  0.78641565  0.39173250    -0.59090
O1073       O  0.59575866  0.72231000  0.43491914    -0.49180
O1074       O  0.56668943  0.76177458  0.47663966    -0.55520
C1075       C  0.52738241  0.70986143  0.38490494     0.84530
O1076       O  0.60196581  0.73974684  0.30385304    -0.57420
O1077       O  0.61572904  0.76364978  0.44152432    -0.60710
In1078     In  0.67899167  0.74847156  0.55326256     1.36870
C1079       C  0.72365743  0.78718219  0.49641986     0.76980
O1080       O  0.68643709  0.71964440  0.60749290    -0.61460
O1081       O  0.69058247  0.72113084  0.50187227    -0.52370
C1082       C  0.67533196  0.76567126  0.67413860     0.69650
O1083       O  0.69085112  0.77940471  0.62673727    -0.47230
C1084       C  0.63694357  0.74346598  0.49203369     0.74350
O1085       O  0.72031033  0.78248366  0.55822450    -0.59090
O1086       O  0.63808370  0.72370742  0.51047367    -0.49180
O1087       O  0.70469788  0.77124586  0.46262135    -0.55520
C1088       C  0.69358624  0.71219537  0.55530853     0.84530
O1089       O  0.65950601  0.74223492  0.65935783    -0.57420
O1090       O  0.65647369  0.76486635  0.50658831    -0.60710
In1091     In  0.78760776  0.95417033  0.57861973     1.36870
C1092       C  0.75035793  0.95696077  0.51308999     0.76980
O1093       O  0.81186480  0.99090018  0.63615538    -0.61460
O1094       O  0.82087371  0.49129355  0.53234885    -0.52370
C1095       C  0.76745274  0.92792756  0.69160235     0.69650
O1096       O  0.75893330  0.94154398  0.66606396    -0.47230
C1097       C  0.79191132  0.91615440  0.51740689     0.74350
O1098       O  0.75047791  0.95690210  0.57578772    -0.59090
O1099       O  0.81234238  0.93697491  0.53321284    -0.49180
O1100       O  0.76987504  0.95669667  0.48344501    -0.55520
C1101       C  0.82448794  0.50424227  0.58487625     0.84530
O1102       O  0.78908302  0.93095929  0.66534742    -0.57420
O1103       O  0.77024043  0.91533739  0.53239288    -0.60710
In1104     In  0.78792622  0.85379013  0.41388223     1.36870
C1105       C  0.74712783  0.81022535  0.46713738     0.76980
O1106       O  0.81701834  0.84569792  0.35419383    -0.61460
O1107       O  0.81692148  0.84514605  0.45982630    -0.52370
C1108       C  0.76982314  0.86367735  0.30657194     0.69650
O1109       O  0.76168346  0.84109640  0.32961110    -0.47230
C1110       C  0.79211496  0.89410205  0.48365353     0.74350
O1111       O  0.75130400  0.81445249  0.40513158    -0.59090
O1112       O  0.81208153  0.89517895  0.45223648    -0.49180
O1113       O  0.76412101  0.82795976  0.50213922    -0.55520
C1114       C  0.82514163  0.84031942  0.40529859     0.84530
O1115       O  0.79022081  0.88149483  0.33231986    -0.57420
O1116       O  0.77112286  0.87242354  0.48169116    -0.60710
C1117       C  0.67900804  0.84274401  0.84367434    -0.03090
C1118       C  0.68471767  0.84761820  0.14371495    -0.03090
In1119     In  0.58161968  0.84598204  0.55982973     1.36870
C1120       C  0.57659060  0.80588203  0.48771426     0.76980
O1121       O  0.54370452  0.83695298  0.61822282    -0.61460
O1122       O  0.54582770  0.84311281  0.51371479    -0.52370
C1123       C  0.60284898  0.84610764  0.67378153     0.69650
O1124       O  0.59328684  0.82693553  0.63534843    -0.47230
C1125       C  0.62180746  0.88937435  0.50625645     0.74350
O1126       O  0.56909704  0.80373557  0.54848341    -0.59090
O1127       O  0.60005696  0.88817062  0.52446528    -0.49180
O1128       O  0.58587936  0.82841850  0.46268597    -0.55520
C1129       C  0.53154607  0.83587657  0.56713436     0.84530
O1130       O  0.60027085  0.86514242  0.65590997    -0.57420
O1131       O  0.62254381  0.86869604  0.51511847    -0.60710
In1132     In  0.68729158  0.95171576  0.41510923     1.36870
C1133       C  0.72854958  0.95614847  0.47790150     0.76980
O1134       O  0.69811262  0.98887645  0.35958780    -0.61460
O1135       O  0.68994507  0.98743627  0.46404865    -0.52370
C1136       C  0.68035995  0.92801717  0.29881837     0.69650
O1137       O  0.70285379  0.94099053  0.32278238    -0.47230
C1138       C  0.64487249  0.91246701  0.47619930     0.74350
O1139       O  0.72791856  0.95565376  0.41519775    -0.59090
O1140       O  0.64479099  0.93287730  0.45816683    -0.49180
O1141       O  0.70841319  0.95487291  0.50831902    -0.55520
C1142       C  0.69835717  0.50116017  0.41153125     0.84530
O1143       O  0.66185733  0.92949716  0.33080759    -0.57420
O1144       O  0.66653761  0.91279229  0.46476856    -0.60710
C1145       C  0.67559508  0.86723411  0.17282319    -0.06720
C1146       C  0.69280775  0.89384649  0.15379804    -0.17850
C1147       C  0.69367076  0.91457884  0.19049066     0.10470
C1148       C  0.67548490  0.90921737  0.24478953    -0.06650
C1149       C  0.65549378  0.88352715  0.25767989    -0.17880
C1150       C  0.65570014  0.86238640  0.22529050     0.10510
S1151       S  0.71900048  0.94776052  0.17020336    -0.32850
S1152       S  0.63381226  0.83122321  0.26546450    -0.32850
H1153       H  0.61403865  0.83692082  0.28921171     0.28510
H1154       H  0.73151375  0.94197613  0.11598877     0.28510
H1155       H  0.70766546  0.89842140  0.11367558     0.19100
H1156       H  0.64184554  0.87977219  0.30055661     0.19110
C1157       C  0.61775635  0.84661323  0.73153173    -0.06720
C1158       C  0.64051361  0.86976935  0.74635774    -0.17850
C1159       C  0.65890594  0.86997121  0.78913674     0.10470
C1160       C  0.65580091  0.84568442  0.81438143    -0.06650
C1161       C  0.63044515  0.82370084  0.80735397    -0.17880
C1162       C  0.61178809  0.82376146  0.76650791     0.10510
S1163       S  0.68436816  0.90239993  0.81062449    -0.32850
S1164       S  0.58061508  0.79381543  0.76107848    -0.32850
H1165       H  0.56563426  0.80601400  0.74941905     0.28510
H1166       H  0.68797251  0.89578319  0.87449324     0.28510
H1167       H  0.64444933  0.88787439  0.72288190     0.19100
H1168       H  0.62425523  0.80610315  0.83338515     0.19110
C1169       C  0.68040299  0.84606095  0.92152234    -0.06720
C1170       C  0.69725322  0.83911399  0.95312438    -0.17850
C1171       C  0.69773000  0.83749913  0.02254576     0.10470
C1172       C  0.68639833  0.84924391  0.06497192    -0.06650
C1173       C  0.67060969  0.85759964  0.03312092    -0.17880
C1174       C  0.66589494  0.85454765  0.96484904     0.10510
S1175       S  0.71244359  0.81937680  0.05301608    -0.32850
S1176       S  0.63917092  0.85965586  0.94121573    -0.32850
H1177       H  0.64344565  0.87938422  0.98734467     0.28510
H1178       H  0.71066330  0.80516679  0.99471384     0.28510
H1179       H  0.70931800  0.83322688  0.92346169     0.19100
H1180       H  0.65880051  0.86380126  0.06291325     0.19110
C1181       C  0.71092924  0.85767417  0.18080883    -0.06720
C1182       C  0.70727403  0.85592664  0.25138633    -0.17850
C1183       C  0.72770430  0.86212482  0.29266113     0.10470
C1184       C  0.75271940  0.86837303  0.26458316    -0.06650
C1185       C  0.75819626  0.87386932  0.19592392    -0.17880
C1186       C  0.73788983  0.87063777  0.15414152     0.10510
S1187       S  0.71996354  0.85916440  0.38153872    -0.32850
S1188       S  0.74778532  0.88548756  0.07175235    -0.32850
H1189       H  0.77534698  0.89679255  0.07686313     0.28510
H1190       H  0.74436088  0.88103411  0.39578388     0.28510
H1191       H  0.68773492  0.84811972  0.27539345     0.19100
H1192       H  0.77811032  0.88035892  0.17525867     0.19110
C1193       C  0.74948381  0.90540339  0.73427549    -0.06720
C1194       C  0.72976857  0.88487597  0.70027400    -0.17850
C1195       C  0.70752269  0.86469719  0.73310770     0.10470
C1196       C  0.70472429  0.86428666  0.80506747    -0.06650
C1197       C  0.72629322  0.88431187  0.83902421    -0.17880
C1198       C  0.74824106  0.90495651  0.80436199     0.10510
S1199       S  0.68388230  0.84211088  0.67531990    -0.32850
S1200       S  0.77306196  0.93073471  0.85214613    -0.32850
H1201       H  0.79330681  0.94053826  0.80119303     0.28510
H1202       H  0.66512060  0.82189221  0.71619312     0.28510
H1203       H  0.73101446  0.88539881  0.64602471     0.19100
H1204       H  0.72571189  0.88513663  0.89283848     0.19110
C1205       C  0.67699612  0.77746554  0.74028983    -0.06720
C1206       C  0.65447974  0.77206065  0.78131808    -0.17850
C1207       C  0.65609498  0.79008744  0.83050569     0.10470
C1208       C  0.67846667  0.81591459  0.82672582    -0.06650
C1209       C  0.70221872  0.81678731  0.80143301    -0.17880
C1210       C  0.70166292  0.79789312  0.75866176     0.10510
S1211       S  0.63326484  0.77667038  0.90299701    -0.32850
S1212       S  0.73301842  0.80205282  0.72524908    -0.32850
H1213       H  0.72326158  0.77547789  0.71136683     0.28510
H1214       H  0.64660718  0.79770908  0.94525463     0.28510
H1215       H  0.63603048  0.75402461  0.77571593     0.19100
H1216       H  0.72150515  0.83337335  0.80986504     0.19110
C1217       C  0.62163057  0.77027281  0.21163448    -0.06720
C1218       C  0.64749500  0.77652371  0.22280800    -0.17850
C1219       C  0.66934158  0.79971637  0.19814149     0.10470
C1220       C  0.66484935  0.81786917  0.16026455    -0.06650
C1221       C  0.63898615  0.80739395  0.13608536    -0.17880
C1222       C  0.61749396  0.78410976  0.16182271     0.10510
S1223       S  0.69996591  0.80231485  0.22499779    -0.32850
S1224       S  0.58480602  0.77482688  0.13599135    -0.32850
H1225       H  0.57287948  0.74890825  0.15984965     0.28510
H1226       H  0.71878411  0.81954555  0.17856214     0.28510
H1227       H  0.65062571  0.76466462  0.25811036     0.19100
H1228       H  0.63441022  0.81885274  0.10355266     0.19110
C1229       C  0.85493757  0.71050461  0.16462860    -0.06720
C1230       C  0.85406375  0.73118884  0.13179171    -0.17850
C1231       C  0.85728164  0.75331756  0.16694106     0.10470
C1232       C  0.86367267  0.75597170  0.23440463    -0.06650
C1233       C  0.86732367  0.73710680  0.26507318    -0.17880
C1234       C  0.86170193  0.71403048  0.23345572     0.10510
S1235       S  0.85197948  0.77685204  0.12428184    -0.32850
S1236       S  0.85971763  0.68835813  0.28673934    -0.32850
H1237       H  0.87709689  0.70472666  0.33444487     0.28510
H1238       H  0.86504831  0.79728446  0.16916132     0.28510
H1239       H  0.84924457  0.72955827  0.08000531     0.19100
H1240       H  0.87132013  0.73896953  0.31768225     0.19110
C1241       C  0.85967786  0.71262130  0.79070533    -0.06720
C1242       C  0.87957176  0.73439959  0.82404782    -0.17850
C1243       C  0.90006027  0.75604367  0.78868564     0.10470
C1244       C  0.89942136  0.75751857  0.71914361    -0.06650
C1245       C  0.87747804  0.73879146  0.68726946    -0.17880
C1246       C  0.85818650  0.71625364  0.72036360     0.10510
S1247       S  0.92686728  0.78058351  0.83435643    -0.32850
S1248       S  0.83383055  0.69343488  0.66525504    -0.32850
H1249       H  0.83584560  0.67155193  0.68130679     0.28510
H1250       H  0.93621348  0.80022871  0.78472933     0.28510
H1251       H  0.88031556  0.73439839  0.87764178     0.19100
H1252       H  0.87684629  0.74040504  0.63358612     0.19110
C1253       C  0.84408085  0.68703766  0.90617224    -0.06720
C1254       C  0.82212161  0.68154118  0.95028037    -0.17850
C1255       C  0.82246637  0.68025765  0.01990282     0.10470
C1256       C  0.84600206  0.68487224  0.05092215    -0.06650
C1257       C  0.86730814  0.68838839  0.00612744    -0.17880
C1258       C  0.86713796  0.69023484  0.93644363     0.10510
S1259       S  0.79090810  0.67070680  0.06326836    -0.32850
S1260       S  0.89740254  0.69710480  0.88885386    -0.32850
H1261       H  0.90981581  0.69118806  0.93864092     0.28510
H1262       H  0.77492156  0.65346109  0.01461522     0.28510
H1263       H  0.80347850  0.67716736  0.93100439     0.19100
H1264       H  0.88520653  0.69049294  0.02481512     0.19110
C1265       C  0.91228056  0.67944508  0.22214863    -0.06720
C1266       C  0.91830972  0.70274078  0.19016339    -0.17850
C1267       C  0.90056420  0.70429081  0.14860383     0.10470
C1268       C  0.87431836  0.68193683  0.14310636    -0.06650
C1269       C  0.87200833  0.65771932  0.16204387    -0.17880
C1270       C  0.89022325  0.65631692  0.20235714     0.10510
S1271       S  0.91308040  0.73661316  0.11229771    -0.32850
S1272       S  0.88263412  0.62463234  0.23249765    -0.32850
H1273       H  0.88106522  0.63083591  0.29998912     0.28510
H1274       H  0.89456280  0.73102187  0.06447293     0.28510
H1275       H  0.93646313  0.72042885  0.20104719     0.19100
H1276       H  0.85567779  0.63931125  0.15003417     0.19110
C1277       C  0.85905394  0.62750207  0.73638076    -0.06720
C1278       C  0.83996382  0.61998965  0.78953311    -0.17850
C1279       C  0.83573614  0.63842070  0.82477539     0.10470
C1280       C  0.84898860  0.66502394  0.80216453    -0.06650
C1281       C  0.87103704  0.67240911  0.75574430    -0.17880
C1282       C  0.87618816  0.65423921  0.72349175     0.10510
S1283       S  0.81095807  0.62589655  0.89283844    -0.32850
S1284       S  0.90297960  0.66649325  0.66023625    -0.32850
H1285       H  0.91336063  0.65110865  0.68284619     0.28510
H1286       H  0.83007164  0.63171078  0.94018219     0.28510
H1287       H  0.82724508  0.59942396  0.80140310     0.19100
H1288       H  0.88461603  0.69254958  0.74235465     0.19110
C1289       C  0.76878111  0.67319728  0.73906790    -0.06720
C1290       C  0.78243429  0.69473653  0.77989441    -0.17850
C1291       C  0.80345742  0.69750630  0.81698602     0.10470
C1292       C  0.81226842  0.67874539  0.81038356    -0.06650
C1293       C  0.79510121  0.65515716  0.77819207    -0.17880
C1294       C  0.77330555  0.65200379  0.74444621     0.10510
S1295       S  0.82032159  0.72674346  0.86599471    -0.32850
S1296       S  0.75504417  0.62207807  0.69975759    -0.32850
H1297       H  0.73023115  0.61984436  0.71730989     0.28510
H1298       H  0.80074877  0.73412122  0.86504915     0.28510
H1299       H  0.77825083  0.71065677  0.77775443     0.19100
H1300       H  0.79956029  0.63967926  0.77173851     0.19110
C1301       C  0.82211860  0.66246369  0.16352763    -0.06720
C1302       C  0.81314225  0.63622242  0.14560381    -0.17850
C1303       C  0.79515333  0.61529798  0.18753737     0.10470
C1304       C  0.78217033  0.62017185  0.24231862    -0.06650
C1305       C  0.78570535  0.64502978  0.25028553    -0.17880
C1306       C  0.80459146  0.66608345  0.21165711     0.10510
S1307       S  0.79027706  0.58323939  0.16989779    -0.32850
S1308       S  0.80181392  0.69502490  0.22826770    -0.32850
H1309       H  0.80398426  0.70351048  0.16249488     0.28510
H1310       H  0.76537603  0.56931788  0.20441999     0.28510
H1311       H  0.82156271  0.63203035  0.10086583     0.19100
H1312       H  0.77431966  0.64839588  0.28992605     0.19110
loop_ 
_geom_bond_atom_site_label_1 
_geom_bond_atom_site_label_2 
_geom_bond_distance 
_geom_bond_site_symmetry_2 
_ccdc_geom_bond_type 
In1           O3   2.226       .  S
In1           O4   2.290       .  S
In1          O12   2.231       .  S
In1           O6   2.239       .  S
In1           O8   2.232       .  S
In1           O9   2.253       .  S
In1          O10   2.247       .  S
In1          O13   2.246       .  S
C2            O8   1.258       .  A
C2           O10   1.260       .  A
C2           C28   1.456       .  S
O3           C11   1.258       .  A
O4           C11   1.266       .  A
C5           O12   1.264       .  A
C5            O6   1.259       .  A
C5          C320   1.467       .  S
C7            O9   1.258       .  A
C7           O13   1.256       .  A
C7          C158   1.462       .  S
C11          C24   1.472       .  S
In14         O16   2.226       .  S
In14         O17   2.288       .  S
In14         O25   2.254       .  S
In14         O19   2.227       .  S
In14         O21   2.253       .  S
In14         O22   2.257       .  S
In14         O23   2.257       .  S
In14         O26   2.261       .  S
C15          O21   1.259       .  A
C15          O23   1.260       .  A
C15          C69   1.467       .  S
O16          C24   1.258       .  A
O17          C24   1.265       .  A
C18          O25   1.263       .  A
C18          O19   1.261       .  A
C18         C305   1.480       .  S
C20          O22   1.257       .  A
C20          O26   1.257       .  A
C20         C104   1.467       .  S
In27         O29   2.219       .  S
In27         O30   2.278       .  S
In27         O38   2.247       .  S
In27         O32   2.224       .  S
In27         O34   2.245       .  S
In27         O35   2.251       .  S
In27         O36   2.240       .  S
In27         O39   2.259       .  S
C28          O34   1.257       .  A
C28          O36   1.259       .  A
O29          C37   1.257       .  A
O30          C37   1.266       .  A
C31          O38   1.264       .  A
C31          O32   1.260       .  A
C31         C293   1.474       .  S
C33          O35   1.257       .  A
C33          O39   1.257       .  A
C33         C117   1.464       .  S
C37          C50   1.466       .  S
In40         O42   2.222       .  S
In40         O43   2.275       .  S
In40         O51   2.270       .  S
In40         O45   2.215       .  S
In40         O47   2.248       .  S
In40         O48   2.247       .  S
In40         O49   2.258       .  S
In40         O52   2.248       .  S
C41          O47   1.257       .  A
C41          O49   1.259       .  A
C41          C56   1.463       .  S
O42          C50   1.258       .  A
O43          C50   1.263       .  A
C44          O51   1.265       .  A
C44          O45   1.259       .  A
C44         C281   1.478       .  S
C46         O704   1.257       .  A
C46         O708   1.257       .  A
C46          C91   1.460   1_655  S
O48         C702   1.257       .  A
O52         C702   1.257       .  A
C53         C257   1.577       .  S
C53         C269   1.578       .  S
C53         C296   1.579       .  S
C53         C308   1.579       .  S
C54         C245   1.553       .  S
C54         C272   1.588       .  S
C54         C284   1.601       .  S
C54         C317   1.587       .  S
In55         O57   2.215       .  S
In55         O58   2.283       .  S
In55         O66   2.254       .  S
In55         O60   2.221       .  S
In55         O62   2.253       .  S
In55         O64   2.250       .  S
In55         O67   2.256       .  S
In55        O719   2.256       .  S
C56          O62   1.259       .  A
C56          O64   1.260       .  A
O57          C65   1.257       .  A
O58          C65   1.267       .  A
C59          O66   1.263       .  A
C59          O60   1.261       .  A
C59         C260   1.465       .  S
C61          O63   1.258   1_455  A
C61         O723   1.257   1_455  A
C61         C145   1.466       .  S
O63        In711   2.256       .  S
C65          C78   1.467       .  S
O67         C717   1.257       .  A
In68         O70   2.217       .  S
In68         O71   2.281       .  S
In68         O79   2.243       .  S
In68         O73   2.233       .  S
In68         O75   2.260       .  S
In68         O76   2.237       .  S
In68         O77   2.261       .  S
In68         O80   2.257       .  S
C69          O75   1.258       .  A
C69          O77   1.259       .  A
O70          C78   1.259       .  A
O71          C78   1.265       .  A
C72          O79   1.262       .  A
C72          O73   1.260       .  A
C72         C248   1.463       .  S
C74          O76   1.256       .  A
C74          O80   1.257       .  A
C74         C130   1.458       .  S
In81         O83   2.245       .  S
In81         O84   2.250       .  S
In81         O92   2.244       .  S
In81         O86   2.225       .  S
In81         O88   2.254       .  S
In81         O89   2.285       .  S
In81         O90   2.242       .  S
In81         O93   2.216       .  S
C82          O88   1.258       .  A
C82          O90   1.258       .  A
C82         C136   1.460       .  S
O83          C91   1.257       .  A
O84          C91   1.258       .  A
C85          O92   1.265       .  A
C85          O86   1.261       .  A
C85         C233   1.473       .  S
C87          O89   1.266       .  A
C87          O93   1.257       .  A
C87         C100   1.468       .  S
In94         O96   2.258       .  S
In94         O97   2.254       .  S
In94        O105   2.301       .  S
In94         O99   2.184       .  S
In94        O101   2.246       .  S
In94        O102   2.295       .  S
In94        O103   2.263       .  S
In94        O106   2.223       .  S
C95         O101   1.257       .  A
C95         O103   1.262       .  A
C95         C121   1.466       .  S
O96         C104   1.258       .  A
O97         C104   1.258       .  A
C98         O105   1.266       .  A
C98          O99   1.256       .  A
C98         C221   1.475       .  S
C100        O102   1.262       .  A
C100        O106   1.254       .  A
In107       O109   2.257       .  S
In107       O118   2.260       .  S
In107       O112   2.213       .  S
In107       O114   2.247       .  S
In107       O115   2.282       .  S
In107       O116   2.258       .  S
In107       O119   2.209       .  S
In107       O438   2.249       .  S
C108        O114   1.258       .  A
C108        O116   1.259       .  A
C108        C149   1.464       .  S
O109        C445   1.258       .  A
O110       In435   2.249       .  S
O110        C117   1.257   1_565  A
C111        O118   1.264       .  A
C111        O112   1.260       .  A
C111        C209   1.465       .  S
C113        O115   1.266       .  A
C113        O119   1.257       .  A
C113        C126   1.464       .  S
C117        O437   1.258   1_545  A
In120       O122   2.256       .  S
In120       O123   2.233       .  S
In120       O131   2.280       .  S
In120       O125   2.203       .  S
In120       O127   2.254       .  S
In120       O128   2.279       .  S
In120       O129   2.255       .  S
In120       O132   2.213       .  S
C121        O127   1.258       .  A
C121        O129   1.262       .  A
O122        C130   1.259       .  A
O123        C130   1.255       .  A
C124        O131   1.262       .  A
C124        O125   1.257       .  A
C124        C200   1.465       .  S
C126        O128   1.264       .  A
C126        O132   1.258       .  A
C133        C176   1.586       .  S
C133        C185   1.572       .  S
C133        C212   1.570       .  S
C133        C224   1.600       .  S
C134        C161   1.588       .  S
C134        C188   1.578       .  S
C134        C197   1.562       .  S
C134        C236   1.578       .  S
In135       O137   2.255       .  S
In135       O138   2.251       .  S
In135       O146   2.262       .  S
In135       O140   2.221       .  S
In135       O142   2.236       .  S
In135       O143   2.273       .  S
In135       O144   2.254       .  S
In135       O147   2.213       .  S
C136        O142   1.258       .  A
C136        O144   1.260       .  A
O137        C145   1.259       .  A
O138        C145   1.258       .  A
C139        O146   1.264       .  A
C139        O140   1.258       .  A
C139        C173   1.475       .  S
C141        O143   1.265       .  A
C141        O147   1.258       .  A
C141        C154   1.463       .  S
In148       O150   2.251       .  S
In148       O151   2.252       .  S
In148       O159   2.247       .  S
In148       O153   2.237       .  S
In148       O155   2.256       .  S
In148       O156   2.271       .  S
In148       O157   2.247       .  S
In148       O160   2.215       .  S
C149        O155   1.259       .  A
C149        O157   1.259       .  A
O150        C486   1.258       .  A
O151        C486   1.256       .  A
C152        O159   1.262       .  A
C152        O153   1.262       .  A
C152        C164   1.475       .  S
C154        O156   1.265       .  A
C154        O160   1.259       .  A
C158        O478   1.258   1_545  A
C158        O479   1.256   1_545  A
C161        C162   1.424       .  A
C161        C166   1.441       .  A
C162        C163   1.400       .  A
C162        H171   1.080       .  S
C163        C164   1.399       .  A
C163        S167   1.807       .  S
C164        C165   1.395       .  A
C165        C166   1.404       .  A
C165        H172   1.084       .  S
C166        S168   1.805       .  S
S167        H170   1.407       .  S
S168        H169   1.408       .  S
C173        C174   1.394       .  A
C173        C178   1.402       .  A
C174        C175   1.402       .  A
C174        H183   1.084       .  S
C175        C176   1.448       .  A
C175        S179   1.810       .  S
C176        C177   1.413       .  A
C177        C178   1.396       .  A
C177        H184   1.051       .  S
C178        S180   1.805       .  S
S179        H182   1.400       .  S
S180        H181   1.407       .  S
C185        C186   1.415       .  A
C185        C190   1.430       .  A
C186        C187   1.399   1_556  A
C186        H195   1.076       .  S
C187        C188   1.420       .  A
C187        S191   1.798       .  S
C188        C189   1.419       .  A
C189        C190   1.402   1_554  A
C189        H196   1.078       .  S
C190        S192   1.811       .  S
S191        H194   1.408   1_554  S
S192        H193   1.408       .  S
C197        C198   1.417       .  A
C197        C202   1.435       .  A
C198        C199   1.377       .  A
C198        H207   1.078       .  S
C199        C200   1.398       .  A
C199        S203   1.804       .  S
C200        C201   1.402       .  A
C201        C202   1.418       .  A
C201        H208   1.082       .  S
C202        S204   1.807       .  S
S203        H206   1.406       .  S
S204        H205   1.407       .  S
C209        C210   1.389       .  A
C209        C214   1.403       .  A
C210        C211   1.388       .  A
C210        H219   1.086       .  S
C211        C212   1.443       .  A
C211        S215   1.822       .  S
C212        C213   1.426       .  A
C213        C214   1.407       .  A
C213        H220   1.079       .  S
C214        S216   1.802       .  S
S215        H218   1.387       .  S
S216        H217   1.405       .  S
C221        C222   1.403       .  A
C221        C226   1.405       .  A
C222        C223   1.413       .  A
C222        H231   1.083       .  S
C223        C224   1.430       .  A
C223        S227   1.812       .  S
C224        C225   1.422       .  A
C225        C226   1.386       .  A
C225        H232   1.082       .  S
C226        S228   1.806       .  S
S227        H230   1.396       .  S
S228        H229   1.408       .  S
C233        C234   1.390       .  A
C233        C238   1.402       .  A
C234        C235   1.399       .  A
C234        H243   1.085       .  S
C235        C236   1.454       .  A
C235        S239   1.821       .  S
C236        C237   1.424       .  A
C237        C238   1.401       .  A
C237        H244   1.078       .  S
C238        S240   1.802       .  S
S239        H242   1.382       .  S
S240        H241   1.407       .  S
C245        C246   1.419       .  A
C245        C250   1.440       .  A
C246        C247   1.409       .  A
C246        H255   1.081       .  S
C247        C248   1.408       .  A
C247        S251   1.800       .  S
C248        C249   1.389       .  A
C249        C250   1.386       .  A
C249        H256   1.085       .  S
C250        S252   1.819       .  S
S251        H254   1.406       .  S
S252        H253   1.407       .  S
C257        C258   1.422       .  A
C257        C262   1.443       .  A
C258        C259   1.406       .  A
C258        H267   1.078       .  S
C259        C260   1.402       .  A
C259        S263   1.801       .  S
C260        C261   1.388       .  A
C261        C262   1.389       .  A
C261        H268   1.086       .  S
C262        S264   1.810       .  S
S263        H266   1.406       .  S
S264        H265   1.397       .  S
C269        C270   1.412       .  A
C269        C274   1.427       .  A
C270        C271   1.401   1_556  A
C270        H279   1.075       .  S
C271        C272   1.432       .  A
C271        S275   1.804       .  S
C272        C273   1.419       .  A
C273        C274   1.404   1_554  A
C273        H280   1.073       .  S
C274        S276   1.815       .  S
S275        H278   1.409       .  S
S276        H277   1.406       .  S
C281        C282   1.395       .  A
C281        C286   1.403       .  A
C282        C283   1.399       .  A
C282        H291   1.085       .  S
C283        C284   1.448       .  A
C283        S287   1.817       .  S
C284        C285   1.423       .  A
C285        C286   1.401       .  A
C285        H292   1.065       .  S
C286        S288   1.800       .  S
S287        H290   1.392       .  S
S288        H289   1.407       .  S
C293        C294   1.400       .  A
C293        C298   1.404       .  A
C294        C295   1.403       .  A
C294        H303   1.084       .  S
C295        C296   1.430       .  A
C295        S299   1.801       .  S
C296        C297   1.424       .  A
C297        C298   1.392       .  A
C297        H304   1.078       .  S
C298        S300   1.803       .  S
S299        H302   1.407       .  S
S300        H301   1.407       .  S
C305        C306   1.399       .  A
C305        C310   1.407       .  A
C306        C307   1.404       .  A
C306        H315   1.083       .  S
C307        C308   1.434       .  A
C307        S311   1.812       .  S
C308        C309   1.420       .  A
C309        C310   1.398       .  A
C309        H316   1.071       .  S
C310        S312   1.803       .  S
S311        H314   1.407       .  S
S312        H313   1.407       .  S
C317        C318   1.415       .  A
C317        C322   1.456       .  A
C318        C319   1.406       .  A
C318        H327   1.083       .  S
C319        C320   1.406       .  A
C319        S323   1.802       .  S
C320        C321   1.385       .  A
C321        C322   1.389       .  A
C321        H328   1.086       .  S
C322        S324   1.819       .  S
S323        H326   1.406       .  S
S324        H325   1.394       .  S
In329       O331   2.226       .  S
In329       O332   2.290       .  S
In329       O340   2.231       .  S
In329       O334   2.239       .  S
In329       O336   2.232       .  S
In329       O337   2.253       .  S
In329       O338   2.247       .  S
In329       O341   2.246       .  S
C330        O336   1.258       .  A
C330        O338   1.260       .  A
C330        C356   1.456       .  S
O331        C339   1.258       .  A
O332        C339   1.266       .  A
C333        O340   1.264       .  A
C333        O334   1.259       .  A
C333        C648   1.467       .  S
C335        O337   1.258       .  A
C335        O341   1.256       .  A
C335        C486   1.462       .  S
C339        C352   1.472       .  S
In342       O344   2.226       .  S
In342       O345   2.288       .  S
In342       O353   2.254       .  S
In342       O347   2.227       .  S
In342       O349   2.253       .  S
In342       O350   2.257       .  S
In342       O351   2.257       .  S
In342       O354   2.261       .  S
C343        O349   1.259       .  A
C343        O351   1.260       .  A
C343        C397   1.467       .  S
O344        C352   1.258       .  A
O345        C352   1.265       .  A
C346        O353   1.263       .  A
C346        O347   1.261       .  A
C346        C633   1.480       .  S
C348        O350   1.257       .  A
C348        O354   1.257       .  A
C348        C432   1.467       .  S
In355       O357   2.219       .  S
In355       O358   2.278       .  S
In355       O366   2.247       .  S
In355       O360   2.224       .  S
In355       O362   2.245       .  S
In355       O363   2.251       .  S
In355       O364   2.240       .  S
In355       O367   2.259       .  S
C356        O362   1.257       .  A
C356        O364   1.259       .  A
O357        C365   1.257       .  A
O358        C365   1.266       .  A
C359        O366   1.264       .  A
C359        O360   1.260       .  A
C359        C621   1.474       .  S
C361        O363   1.257       .  A
C361        O367   1.257       .  A
C361        C445   1.464       .  S
C365        C378   1.466       .  S
In368       O370   2.222       .  S
In368       O371   2.275       .  S
In368       O379   2.270       .  S
In368       O373   2.215       .  S
In368       O375   2.248       .  S
In368       O376   2.247       .  S
In368       O377   2.258       .  S
In368       O380   2.248       .  S
C369        O375   1.257       .  A
C369        O377   1.259       .  A
C369        C384   1.463       .  S
O370        C378   1.258       .  A
O371        C378   1.263       .  A
C372        O379   1.265       .  A
C372        O373   1.259       .  A
C372        C609   1.478       .  S
C374       O1032   1.257       .  A
C374       O1036   1.257       .  A
C374        C419   1.460   1_655  S
O376       C1030   1.257       .  A
O380       C1030   1.257       .  A
C381        C585   1.577       .  S
C381        C597   1.578       .  S
C381        C624   1.579       .  S
C381        C636   1.579       .  S
C382        C573   1.553       .  S
C382        C600   1.588       .  S
C382        C612   1.601       .  S
C382        C645   1.587       .  S
In383       O385   2.215       .  S
In383       O386   2.283       .  S
In383       O394   2.254       .  S
In383       O388   2.221       .  S
In383       O390   2.253       .  S
In383      O1047   2.256       .  S
In383       O392   2.250       .  S
In383       O395   2.256       .  S
C384        O390   1.259       .  A
C384        O392   1.260       .  A
O385        C393   1.257       .  A
O386        C393   1.267       .  A
C387        O394   1.263       .  A
C387        O388   1.261       .  A
C387        C588   1.465       .  S
C389        O391   1.258   1_455  A
C389       O1051   1.257   1_455  A
C389        C473   1.466       .  S
O391      In1039   2.256       .  S
C393        C406   1.467       .  S
O395       C1045   1.257       .  A
In396       O398   2.217       .  S
In396       O399   2.281       .  S
In396       O407   2.243       .  S
In396       O401   2.233       .  S
In396       O403   2.260       .  S
In396       O404   2.237       .  S
In396       O405   2.261       .  S
In396       O408   2.257       .  S
C397        O403   1.258       .  A
C397        O405   1.259       .  A
O398        C406   1.259       .  A
O399        C406   1.265       .  A
C400        O407   1.262       .  A
C400        O401   1.260       .  A
C400        C576   1.463       .  S
C402        O404   1.256       .  A
C402        O408   1.257       .  A
C402        C458   1.458       .  S
In409       O411   2.245       .  S
In409       O412   2.250       .  S
In409       O420   2.244       .  S
In409       O414   2.225       .  S
In409       O416   2.254       .  S
In409       O417   2.285       .  S
In409       O418   2.242       .  S
In409       O421   2.216       .  S
C410        O416   1.258       .  A
C410        O418   1.258       .  A
C410        C464   1.460       .  S
O411        C419   1.257       .  A
O412        C419   1.258       .  A
C413        O420   1.265       .  A
C413        O414   1.261       .  A
C413        C561   1.473       .  S
C415        O417   1.266       .  A
C415        O421   1.257       .  A
C415        C428   1.468       .  S
In422       O424   2.258       .  S
In422       O425   2.254       .  S
In422       O433   2.301       .  S
In422       O427   2.184       .  S
In422       O429   2.246       .  S
In422       O430   2.295       .  S
In422       O431   2.263       .  S
In422       O434   2.223       .  S
C423        O429   1.257       .  A
C423        O431   1.262       .  A
C423        C449   1.466       .  S
O424        C432   1.258       .  A
O425        C432   1.258       .  A
C426        O433   1.266       .  A
C426        O427   1.256       .  A
C426        C549   1.475       .  S
C428        O430   1.262       .  A
C428        O434   1.254       .  A
In435       O437   2.257       .  S
In435       O446   2.260       .  S
In435       O440   2.213       .  S
In435       O442   2.247       .  S
In435       O443   2.282       .  S
In435       O444   2.258       .  S
In435       O447   2.209       .  S
C436        O442   1.258       .  A
C436        O444   1.259       .  A
C436        C477   1.464       .  S
O438        C445   1.257       .  A
C439        O446   1.264       .  A
C439        O440   1.260       .  A
C439        C537   1.465       .  S
C441        O443   1.266       .  A
C441        O447   1.257       .  A
C441        C454   1.464       .  S
In448       O450   2.256       .  S
In448       O451   2.233       .  S
In448       O459   2.280       .  S
In448       O453   2.203       .  S
In448       O455   2.254       .  S
In448       O456   2.279       .  S
In448       O457   2.255       .  S
In448       O460   2.213       .  S
C449        O455   1.258       .  A
C449        O457   1.262       .  A
O450        C458   1.259       .  A
O451        C458   1.255       .  A
C452        O459   1.262       .  A
C452        O453   1.257       .  A
C452        C528   1.465       .  S
C454        O456   1.264       .  A
C454        O460   1.258       .  A
C461        C504   1.586       .  S
C461        C513   1.572       .  S
C461        C540   1.570       .  S
C461        C552   1.600       .  S
C462        C489   1.588       .  S
C462        C516   1.578       .  S
C462        C525   1.562       .  S
C462        C564   1.578       .  S
In463       O465   2.255       .  S
In463       O466   2.251       .  S
In463       O474   2.262       .  S
In463       O468   2.221       .  S
In463       O470   2.236       .  S
In463       O471   2.273       .  S
In463       O472   2.254       .  S
In463       O475   2.213       .  S
C464        O470   1.258       .  A
C464        O472   1.260       .  A
O465        C473   1.259       .  A
O466        C473   1.258       .  A
C467        O474   1.264       .  A
C467        O468   1.258       .  A
C467        C501   1.475       .  S
C469        O471   1.265       .  A
C469        O475   1.258       .  A
C469        C482   1.463       .  S
In476       O478   2.251       .  S
In476       O479   2.252       .  S
In476       O487   2.247       .  S
In476       O481   2.237       .  S
In476       O483   2.256       .  S
In476       O484   2.271       .  S
In476       O485   2.247       .  S
In476       O488   2.215       .  S
C477        O483   1.259       .  A
C477        O485   1.259       .  A
C480        O487   1.262       .  A
C480        O481   1.262       .  A
C480        C492   1.475       .  S
C482        O484   1.265       .  A
C482        O488   1.259       .  A
C489        C490   1.424       .  A
C489        C494   1.441       .  A
C490        C491   1.400       .  A
C490        H499   1.080       .  S
C491        C492   1.399       .  A
C491        S495   1.807       .  S
C492        C493   1.395       .  A
C493        C494   1.404       .  A
C493        H500   1.084       .  S
C494        S496   1.805       .  S
S495        H498   1.407       .  S
S496        H497   1.408       .  S
C501        C502   1.394       .  A
C501        C506   1.402       .  A
C502        C503   1.402       .  A
C502        H511   1.084       .  S
C503        C504   1.448       .  A
C503        S507   1.810       .  S
C504        C505   1.413       .  A
C505        C506   1.396       .  A
C505        H512   1.051       .  S
C506        S508   1.805       .  S
S507        H510   1.400       .  S
S508        H509   1.407       .  S
C513        C514   1.415       .  A
C513        C518   1.430       .  A
C514        C515   1.399   1_556  A
C514        H523   1.076       .  S
C515        C516   1.420       .  A
C515        S519   1.798       .  S
C516        C517   1.419       .  A
C517        C518   1.402   1_554  A
C517        H524   1.078       .  S
C518        S520   1.811       .  S
S519        H522   1.408   1_554  S
S520        H521   1.408       .  S
C525        C526   1.417       .  A
C525        C530   1.435       .  A
C526        C527   1.377       .  A
C526        H535   1.078       .  S
C527        C528   1.398       .  A
C527        S531   1.804       .  S
C528        C529   1.402       .  A
C529        C530   1.418       .  A
C529        H536   1.082       .  S
C530        S532   1.807       .  S
S531        H534   1.406       .  S
S532        H533   1.407       .  S
C537        C538   1.389       .  A
C537        C542   1.403       .  A
C538        C539   1.388       .  A
C538        H547   1.086       .  S
C539        C540   1.443       .  A
C539        S543   1.822       .  S
C540        C541   1.426       .  A
C541        C542   1.407       .  A
C541        H548   1.079       .  S
C542        S544   1.802       .  S
S543        H546   1.387       .  S
S544        H545   1.405       .  S
C549        C550   1.403       .  A
C549        C554   1.405       .  A
C550        C551   1.413       .  A
C550        H559   1.083       .  S
C551        C552   1.430       .  A
C551        S555   1.812       .  S
C552        C553   1.422       .  A
C553        C554   1.386       .  A
C553        H560   1.082       .  S
C554        S556   1.806       .  S
S555        H558   1.396       .  S
S556        H557   1.408       .  S
C561        C562   1.390       .  A
C561        C566   1.402       .  A
C562        C563   1.399       .  A
C562        H571   1.085       .  S
C563        C564   1.454       .  A
C563        S567   1.821       .  S
C564        C565   1.424       .  A
C565        C566   1.401       .  A
C565        H572   1.078       .  S
C566        S568   1.802       .  S
S567        H570   1.382       .  S
S568        H569   1.407       .  S
C573        C574   1.419       .  A
C573        C578   1.440       .  A
C574        C575   1.409       .  A
C574        H583   1.081       .  S
C575        C576   1.408       .  A
C575        S579   1.800       .  S
C576        C577   1.389       .  A
C577        C578   1.386       .  A
C577        H584   1.085       .  S
C578        S580   1.819       .  S
S579        H582   1.406       .  S
S580        H581   1.407       .  S
C585        C586   1.422       .  A
C585        C590   1.443       .  A
C586        C587   1.406       .  A
C586        H595   1.078       .  S
C587        C588   1.402       .  A
C587        S591   1.801       .  S
C588        C589   1.388       .  A
C589        C590   1.389       .  A
C589        H596   1.086       .  S
C590        S592   1.810       .  S
S591        H594   1.406       .  S
S592        H593   1.397       .  S
C597        C598   1.412       .  A
C597        C602   1.427       .  A
C598        C599   1.401   1_556  A
C598        H607   1.075       .  S
C599        C600   1.432       .  A
C599        S603   1.804       .  S
C600        C601   1.419       .  A
C601        C602   1.404   1_554  A
C601        H608   1.073       .  S
C602        S604   1.815       .  S
S603        H606   1.409       .  S
S604        H605   1.406       .  S
C609        C610   1.395       .  A
C609        C614   1.403       .  A
C610        C611   1.399       .  A
C610        H619   1.085       .  S
C611        C612   1.448       .  A
C611        S615   1.817       .  S
C612        C613   1.423       .  A
C613        C614   1.401       .  A
C613        H620   1.065       .  S
C614        S616   1.800       .  S
S615        H618   1.392       .  S
S616        H617   1.407       .  S
C621        C622   1.400       .  A
C621        C626   1.404       .  A
C622        C623   1.403       .  A
C622        H631   1.084       .  S
C623        C624   1.430       .  A
C623        S627   1.801       .  S
C624        C625   1.424       .  A
C625        C626   1.392       .  A
C625        H632   1.078       .  S
C626        S628   1.803       .  S
S627        H630   1.407       .  S
S628        H629   1.407       .  S
C633        C634   1.399       .  A
C633        C638   1.407       .  A
C634        C635   1.404       .  A
C634        H643   1.083       .  S
C635        C636   1.434       .  A
C635        S639   1.812       .  S
C636        C637   1.420       .  A
C637        C638   1.398       .  A
C637        H644   1.071       .  S
C638        S640   1.803       .  S
S639        H642   1.407       .  S
S640        H641   1.407       .  S
C645        C646   1.415       .  A
C645        C650   1.456       .  A
C646        C647   1.406       .  A
C646        H655   1.083       .  S
C647        C648   1.406       .  A
C647        S651   1.802       .  S
C648        C649   1.385       .  A
C649        C650   1.389       .  A
C649        H656   1.086       .  S
C650        S652   1.819       .  S
S651        H654   1.406       .  S
S652        H653   1.394       .  S
In657       O659   2.226       .  S
In657       O660   2.290       .  S
In657       O668   2.231       .  S
In657       O662   2.239       .  S
In657       O664   2.232       .  S
In657       O665   2.253       .  S
In657       O666   2.247       .  S
In657       O669   2.246       .  S
C658        O664   1.258       .  A
C658        O666   1.260       .  A
C658        C684   1.456       .  S
O659        C667   1.258       .  A
O660        C667   1.266       .  A
C661        O668   1.264       .  A
C661        O662   1.259       .  A
C661        C976   1.467       .  S
C663        O665   1.258       .  A
C663        O669   1.256       .  A
C663        C814   1.462       .  S
C667        C680   1.472       .  S
In670       O672   2.226       .  S
In670       O673   2.288       .  S
In670       O681   2.254       .  S
In670       O675   2.227       .  S
In670       O677   2.253       .  S
In670       O678   2.257       .  S
In670       O679   2.257       .  S
In670       O682   2.261       .  S
C671        O677   1.259       .  A
C671        O679   1.260       .  A
C671        C725   1.467       .  S
O672        C680   1.258       .  A
O673        C680   1.265       .  A
C674        O681   1.263       .  A
C674        O675   1.261       .  A
C674        C961   1.480       .  S
C676        O678   1.257       .  A
C676        O682   1.257       .  A
C676        C760   1.467       .  S
In683       O685   2.219       .  S
In683       O686   2.278       .  S
In683       O694   2.247       .  S
In683       O688   2.224       .  S
In683       O690   2.245       .  S
In683       O691   2.251       .  S
In683       O692   2.240       .  S
In683       O695   2.259       .  S
C684        O690   1.257       .  A
C684        O692   1.259       .  A
O685        C693   1.257       .  A
O686        C693   1.266       .  A
C687        O694   1.264       .  A
C687        O688   1.260       .  A
C687        C949   1.474       .  S
C689        O691   1.257       .  A
C689        O695   1.257       .  A
C689        C773   1.464       .  S
C693        C706   1.466       .  S
In696       O698   2.222       .  S
In696       O699   2.275       .  S
In696       O707   2.270       .  S
In696       O701   2.215       .  S
In696       O703   2.248       .  S
In696       O704   2.247       .  S
In696       O705   2.258       .  S
In696       O708   2.248       .  S
C697        O703   1.257       .  A
C697        O705   1.259       .  A
C697        C712   1.463       .  S
O698        C706   1.258       .  A
O699        C706   1.263       .  A
C700        O707   1.265       .  A
C700        O701   1.259       .  A
C700        C937   1.478       .  S
C702        C747   1.460       .  S
C709        C913   1.577       .  S
C709        C925   1.578       .  S
C709        C952   1.579       .  S
C709        C964   1.579       .  S
C710        C901   1.553       .  S
C710        C928   1.588       .  S
C710        C940   1.601       .  S
C710        C973   1.587       .  S
In711       O713   2.215       .  S
In711       O714   2.283       .  S
In711       O722   2.254       .  S
In711       O716   2.221       .  S
In711       O718   2.253       .  S
In711       O720   2.250       .  S
In711       O723   2.256       .  S
C712        O718   1.259       .  A
C712        O720   1.260       .  A
O713        C721   1.257       .  A
O714        C721   1.267       .  A
C715        O722   1.263       .  A
C715        O716   1.261       .  A
C715        C916   1.465       .  S
C717        O719   1.258       .  A
C717        C801   1.466       .  S
C721        C734   1.467       .  S
In724       O726   2.217       .  S
In724       O727   2.281       .  S
In724       O735   2.243       .  S
In724       O729   2.233       .  S
In724       O731   2.260       .  S
In724       O732   2.237       .  S
In724       O733   2.261       .  S
In724       O736   2.257       .  S
C725        O731   1.258       .  A
C725        O733   1.259       .  A
O726        C734   1.259       .  A
O727        C734   1.265       .  A
C728        O735   1.262       .  A
C728        O729   1.260       .  A
C728        C904   1.463       .  S
C730        O732   1.256       .  A
C730        O736   1.257       .  A
C730        C786   1.458       .  S
In737       O739   2.245       .  S
In737       O740   2.250       .  S
In737       O748   2.244       .  S
In737       O742   2.225       .  S
In737       O744   2.254       .  S
In737       O745   2.285       .  S
In737       O746   2.242       .  S
In737       O749   2.216       .  S
C738        O744   1.258       .  A
C738        O746   1.258       .  A
C738        C792   1.460       .  S
O739        C747   1.257       .  A
O740        C747   1.258       .  A
C741        O748   1.265       .  A
C741        O742   1.261       .  A
C741        C889   1.473       .  S
C743        O745   1.266       .  A
C743        O749   1.257       .  A
C743        C756   1.468       .  S
In750       O752   2.258       .  S
In750       O753   2.254       .  S
In750       O761   2.301       .  S
In750       O755   2.184       .  S
In750       O757   2.246       .  S
In750       O758   2.295       .  S
In750       O759   2.263       .  S
In750       O762   2.223       .  S
C751        O757   1.257       .  A
C751        O759   1.262       .  A
C751        C777   1.466       .  S
O752        C760   1.258       .  A
O753        C760   1.258       .  A
C754        O761   1.266       .  A
C754        O755   1.256       .  A
C754        C877   1.475       .  S
C756        O758   1.262       .  A
C756        O762   1.254       .  A
In763       O765   2.257       .  S
In763      O1094   2.249       .  S
In763       O774   2.260       .  S
In763       O768   2.213       .  S
In763       O770   2.247       .  S
In763       O771   2.282       .  S
In763       O772   2.258       .  S
In763       O775   2.209       .  S
C764        O770   1.258       .  A
C764        O772   1.259       .  A
C764        C805   1.464       .  S
O765       C1101   1.258       .  A
O766      In1091   2.249       .  S
O766        C773   1.257   1_565  A
C767        O774   1.264       .  A
C767        O768   1.260       .  A
C767        C865   1.465       .  S
C769        O771   1.266       .  A
C769        O775   1.257       .  A
C769        C782   1.464       .  S
C773       O1093   1.258   1_545  A
In776       O778   2.256       .  S
In776       O779   2.233       .  S
In776       O787   2.280       .  S
In776       O781   2.203       .  S
In776       O783   2.254       .  S
In776       O784   2.279       .  S
In776       O785   2.255       .  S
In776       O788   2.213       .  S
C777        O783   1.258       .  A
C777        O785   1.262       .  A
O778        C786   1.259       .  A
O779        C786   1.255       .  A
C780        O787   1.262       .  A
C780        O781   1.257       .  A
C780        C856   1.465       .  S
C782        O784   1.264       .  A
C782        O788   1.258       .  A
C789        C832   1.586       .  S
C789        C841   1.572       .  S
C789        C868   1.570       .  S
C789        C880   1.600       .  S
C790        C817   1.588       .  S
C790        C844   1.578       .  S
C790        C853   1.562       .  S
C790        C892   1.578       .  S
In791       O793   2.255       .  S
In791       O794   2.251       .  S
In791       O802   2.262       .  S
In791       O796   2.221       .  S
In791       O798   2.236       .  S
In791       O799   2.273       .  S
In791       O800   2.254       .  S
In791       O803   2.213       .  S
C792        O798   1.258       .  A
C792        O800   1.260       .  A
O793        C801   1.259       .  A
O794        C801   1.258       .  A
C795        O802   1.264       .  A
C795        O796   1.258       .  A
C795        C829   1.475       .  S
C797        O799   1.265       .  A
C797        O803   1.258       .  A
C797        C810   1.463       .  S
In804       O806   2.251       .  S
In804       O807   2.252       .  S
In804       O815   2.247       .  S
In804       O809   2.237       .  S
In804       O811   2.256       .  S
In804       O812   2.271       .  S
In804       O813   2.247       .  S
In804       O816   2.215       .  S
C805        O811   1.259       .  A
C805        O813   1.259       .  A
O806       C1142   1.258       .  A
O807       C1142   1.256       .  A
C808        O815   1.262       .  A
C808        O809   1.262       .  A
C808        C820   1.475       .  S
C810        O812   1.265       .  A
C810        O816   1.259       .  A
C814       O1134   1.258   1_545  A
C814       O1135   1.256   1_545  A
C817        C818   1.424       .  A
C817        C822   1.441       .  A
C818        C819   1.400       .  A
C818        H827   1.080       .  S
C819        C820   1.399       .  A
C819        S823   1.807       .  S
C820        C821   1.395       .  A
C821        C822   1.404       .  A
C821        H828   1.084       .  S
C822        S824   1.805       .  S
S823        H826   1.407       .  S
S824        H825   1.408       .  S
C829        C830   1.394       .  A
C829        C834   1.402       .  A
C830        C831   1.402       .  A
C830        H839   1.084       .  S
C831        C832   1.448       .  A
C831        S835   1.810       .  S
C832        C833   1.413       .  A
C833        C834   1.396       .  A
C833        H840   1.051       .  S
C834        S836   1.805       .  S
S835        H838   1.400       .  S
S836        H837   1.407       .  S
C841        C842   1.415       .  A
C841        C846   1.430       .  A
C842        C843   1.399   1_556  A
C842        H851   1.076       .  S
C843        C844   1.420       .  A
C843        S847   1.798       .  S
C844        C845   1.419       .  A
C845        C846   1.402   1_554  A
C845        H852   1.078       .  S
C846        S848   1.811       .  S
S847        H850   1.408   1_554  S
S848        H849   1.408       .  S
C853        C854   1.417       .  A
C853        C858   1.435       .  A
C854        C855   1.377       .  A
C854        H863   1.078       .  S
C855        C856   1.398       .  A
C855        S859   1.804       .  S
C856        C857   1.402       .  A
C857        C858   1.418       .  A
C857        H864   1.082       .  S
C858        S860   1.807       .  S
S859        H862   1.406       .  S
S860        H861   1.407       .  S
C865        C866   1.389       .  A
C865        C870   1.403       .  A
C866        C867   1.388       .  A
C866        H875   1.086       .  S
C867        C868   1.443       .  A
C867        S871   1.822       .  S
C868        C869   1.426       .  A
C869        C870   1.407       .  A
C869        H876   1.079       .  S
C870        S872   1.802       .  S
S871        H874   1.387       .  S
S872        H873   1.405       .  S
C877        C878   1.403       .  A
C877        C882   1.405       .  A
C878        C879   1.413       .  A
C878        H887   1.083       .  S
C879        C880   1.430       .  A
C879        S883   1.812       .  S
C880        C881   1.422       .  A
C881        C882   1.386       .  A
C881        H888   1.082       .  S
C882        S884   1.806       .  S
S883        H886   1.396       .  S
S884        H885   1.408       .  S
C889        C890   1.390       .  A
C889        C894   1.402       .  A
C890        C891   1.399       .  A
C890        H899   1.085       .  S
C891        C892   1.454       .  A
C891        S895   1.821       .  S
C892        C893   1.424       .  A
C893        C894   1.401       .  A
C893        H900   1.078       .  S
C894        S896   1.802       .  S
S895        H898   1.382       .  S
S896        H897   1.407       .  S
C901        C902   1.419       .  A
C901        C906   1.440       .  A
C902        C903   1.409       .  A
C902        H911   1.081       .  S
C903        C904   1.408       .  A
C903        S907   1.800       .  S
C904        C905   1.389       .  A
C905        C906   1.386       .  A
C905        H912   1.085       .  S
C906        S908   1.819       .  S
S907        H910   1.406       .  S
S908        H909   1.407       .  S
C913        C914   1.422       .  A
C913        C918   1.443       .  A
C914        C915   1.406       .  A
C914        H923   1.078       .  S
C915        C916   1.402       .  A
C915        S919   1.801       .  S
C916        C917   1.388       .  A
C917        C918   1.389       .  A
C917        H924   1.086       .  S
C918        S920   1.810       .  S
S919        H922   1.406       .  S
S920        H921   1.397       .  S
C925        C926   1.412       .  A
C925        C930   1.427       .  A
C926        C927   1.401   1_556  A
C926        H935   1.075       .  S
C927        C928   1.432       .  A
C927        S931   1.804       .  S
C928        C929   1.419       .  A
C929        C930   1.404   1_554  A
C929        H936   1.073       .  S
C930        S932   1.815       .  S
S931        H934   1.409       .  S
S932        H933   1.406       .  S
C937        C938   1.395       .  A
C937        C942   1.403       .  A
C938        C939   1.399       .  A
C938        H947   1.085       .  S
C939        C940   1.448       .  A
C939        S943   1.817       .  S
C940        C941   1.423       .  A
C941        C942   1.401       .  A
C941        H948   1.065       .  S
C942        S944   1.800       .  S
S943        H946   1.392       .  S
S944        H945   1.407       .  S
C949        C950   1.400       .  A
C949        C954   1.404       .  A
C950        C951   1.403       .  A
C950        H959   1.084       .  S
C951        C952   1.430       .  A
C951        S955   1.801       .  S
C952        C953   1.424       .  A
C953        C954   1.392       .  A
C953        H960   1.078       .  S
C954        S956   1.803       .  S
S955        H958   1.407       .  S
S956        H957   1.407       .  S
C961        C962   1.399       .  A
C961        C966   1.407       .  A
C962        C963   1.404       .  A
C962        H971   1.083       .  S
C963        C964   1.434       .  A
C963        S967   1.812       .  S
C964        C965   1.420       .  A
C965        C966   1.398       .  A
C965        H972   1.071       .  S
C966        S968   1.803       .  S
S967        H970   1.407       .  S
S968        H969   1.407       .  S
C973        C974   1.415       .  A
C973        C978   1.456       .  A
C974        C975   1.406       .  A
C974        H983   1.083       .  S
C975        C976   1.406       .  A
C975        S979   1.802       .  S
C976        C977   1.385       .  A
C977        C978   1.389       .  A
C977        H984   1.086       .  S
C978        S980   1.819       .  S
S979        H982   1.406       .  S
S980        H981   1.394       .  S
In985       O987   2.226       .  S
In985       O988   2.290       .  S
In985       O996   2.231       .  S
In985       O990   2.239       .  S
In985       O992   2.232       .  S
In985       O993   2.253       .  S
In985       O994   2.247       .  S
In985       O997   2.246       .  S
C986        O992   1.258       .  A
C986        O994   1.260       .  A
C986       C1012   1.456       .  S
O987        C995   1.258       .  A
O988        C995   1.266       .  A
C989        O996   1.264       .  A
C989        O990   1.259       .  A
C989       C1304   1.467       .  S
C991        O993   1.258       .  A
C991        O997   1.256       .  A
C991       C1142   1.462       .  S
C995       C1008   1.472       .  S
In998      O1000   2.226       .  S
In998      O1001   2.288       .  S
In998      O1009   2.254       .  S
In998      O1003   2.227       .  S
In998      O1005   2.253       .  S
In998      O1006   2.257       .  S
In998      O1007   2.257       .  S
In998      O1010   2.261       .  S
C999       O1005   1.259       .  A
C999       O1007   1.260       .  A
C999       C1053   1.467       .  S
O1000      C1008   1.258       .  A
O1001      C1008   1.265       .  A
C1002      O1009   1.263       .  A
C1002      O1003   1.261       .  A
C1002      C1289   1.480       .  S
C1004      O1006   1.257       .  A
C1004      O1010   1.257       .  A
C1004      C1088   1.467       .  S
In1011     O1013   2.219       .  S
In1011     O1014   2.278       .  S
In1011     O1022   2.247       .  S
In1011     O1016   2.224       .  S
In1011     O1018   2.245       .  S
In1011     O1019   2.251       .  S
In1011     O1020   2.240       .  S
In1011     O1023   2.259       .  S
C1012      O1018   1.257       .  A
C1012      O1020   1.259       .  A
O1013      C1021   1.257       .  A
O1014      C1021   1.266       .  A
C1015      O1022   1.264       .  A
C1015      O1016   1.260       .  A
C1015      C1277   1.474       .  S
C1017      O1019   1.257       .  A
C1017      O1023   1.257       .  A
C1017      C1101   1.464       .  S
C1021      C1034   1.466       .  S
In1024     O1026   2.222       .  S
In1024     O1027   2.275       .  S
In1024     O1035   2.270       .  S
In1024     O1029   2.215       .  S
In1024     O1031   2.248       .  S
In1024     O1032   2.247       .  S
In1024     O1033   2.258       .  S
In1024     O1036   2.248       .  S
C1025      O1031   1.257       .  A
C1025      O1033   1.259       .  A
C1025      C1040   1.463       .  S
O1026      C1034   1.258       .  A
O1027      C1034   1.263       .  A
C1028      O1035   1.265       .  A
C1028      O1029   1.259       .  A
C1028      C1265   1.478       .  S
C1030      C1075   1.460       .  S
C1037      C1241   1.577       .  S
C1037      C1253   1.578       .  S
C1037      C1280   1.579       .  S
C1037      C1292   1.579       .  S
C1038      C1229   1.553       .  S
C1038      C1256   1.588       .  S
C1038      C1268   1.601       .  S
C1038      C1301   1.587       .  S
In1039     O1041   2.215       .  S
In1039     O1042   2.283       .  S
In1039     O1050   2.254       .  S
In1039     O1044   2.221       .  S
In1039     O1046   2.253       .  S
In1039     O1048   2.250       .  S
In1039     O1051   2.256       .  S
C1040      O1046   1.259       .  A
C1040      O1048   1.260       .  A
O1041      C1049   1.257       .  A
O1042      C1049   1.267       .  A
C1043      O1050   1.263       .  A
C1043      O1044   1.261       .  A
C1043      C1244   1.465       .  S
C1045      O1047   1.258       .  A
C1045      C1129   1.466       .  S
C1049      C1062   1.467       .  S
In1052     O1054   2.217       .  S
In1052     O1055   2.281       .  S
In1052     O1063   2.243       .  S
In1052     O1057   2.233       .  S
In1052     O1059   2.260       .  S
In1052     O1060   2.237       .  S
In1052     O1061   2.261       .  S
In1052     O1064   2.257       .  S
C1053      O1059   1.258       .  A
C1053      O1061   1.259       .  A
O1054      C1062   1.259       .  A
O1055      C1062   1.265       .  A
C1056      O1063   1.262       .  A
C1056      O1057   1.260       .  A
C1056      C1232   1.463       .  S
C1058      O1060   1.256       .  A
C1058      O1064   1.257       .  A
C1058      C1114   1.458       .  S
In1065     O1067   2.245       .  S
In1065     O1068   2.250       .  S
In1065     O1076   2.244       .  S
In1065     O1070   2.225       .  S
In1065     O1072   2.254       .  S
In1065     O1073   2.285       .  S
In1065     O1074   2.242       .  S
In1065     O1077   2.216       .  S
C1066      O1072   1.258       .  A
C1066      O1074   1.258       .  A
C1066      C1120   1.460       .  S
O1067      C1075   1.257       .  A
O1068      C1075   1.258       .  A
C1069      O1076   1.265       .  A
C1069      O1070   1.261       .  A
C1069      C1217   1.473       .  S
C1071      O1073   1.266       .  A
C1071      O1077   1.257       .  A
C1071      C1084   1.468       .  S
In1078     O1080   2.258       .  S
In1078     O1081   2.254       .  S
In1078     O1089   2.301       .  S
In1078     O1083   2.184       .  S
In1078     O1085   2.246       .  S
In1078     O1086   2.295       .  S
In1078     O1087   2.263       .  S
In1078     O1090   2.223       .  S
C1079      O1085   1.257       .  A
C1079      O1087   1.262       .  A
C1079      C1105   1.466       .  S
O1080      C1088   1.258       .  A
O1081      C1088   1.258       .  A
C1082      O1089   1.266       .  A
C1082      O1083   1.256       .  A
C1082      C1205   1.475       .  S
C1084      O1086   1.262       .  A
C1084      O1090   1.254       .  A
In1091     O1093   2.257       .  S
In1091     O1102   2.260       .  S
In1091     O1096   2.213       .  S
In1091     O1098   2.247       .  S
In1091     O1099   2.282       .  S
In1091     O1100   2.258       .  S
In1091     O1103   2.209       .  S
C1092      O1098   1.258       .  A
C1092      O1100   1.259       .  A
C1092      C1133   1.464       .  S
O1094      C1101   1.257       .  A
C1095      O1102   1.264       .  A
C1095      O1096   1.260       .  A
C1095      C1193   1.465       .  S
C1097      O1099   1.266       .  A
C1097      O1103   1.257       .  A
C1097      C1110   1.464       .  S
In1104     O1106   2.256       .  S
In1104     O1107   2.233       .  S
In1104     O1115   2.280       .  S
In1104     O1109   2.203       .  S
In1104     O1111   2.254       .  S
In1104     O1112   2.279       .  S
In1104     O1113   2.255       .  S
In1104     O1116   2.213       .  S
C1105      O1111   1.258       .  A
C1105      O1113   1.262       .  A
O1106      C1114   1.259       .  A
O1107      C1114   1.255       .  A
C1108      O1115   1.262       .  A
C1108      O1109   1.257       .  A
C1108      C1184   1.465       .  S
C1110      O1112   1.264       .  A
C1110      O1116   1.258       .  A
C1117      C1160   1.586       .  S
C1117      C1169   1.572       .  S
C1117      C1196   1.570       .  S
C1117      C1208   1.600       .  S
C1118      C1145   1.588       .  S
C1118      C1172   1.578       .  S
C1118      C1181   1.562       .  S
C1118      C1220   1.578       .  S
In1119     O1121   2.255       .  S
In1119     O1122   2.251       .  S
In1119     O1130   2.262       .  S
In1119     O1124   2.221       .  S
In1119     O1126   2.236       .  S
In1119     O1127   2.273       .  S
In1119     O1128   2.254       .  S
In1119     O1131   2.213       .  S
C1120      O1126   1.258       .  A
C1120      O1128   1.260       .  A
O1121      C1129   1.259       .  A
O1122      C1129   1.258       .  A
C1123      O1130   1.264       .  A
C1123      O1124   1.258       .  A
C1123      C1157   1.475       .  S
C1125      O1127   1.265       .  A
C1125      O1131   1.258       .  A
C1125      C1138   1.463       .  S
In1132     O1134   2.251       .  S
In1132     O1135   2.252       .  S
In1132     O1143   2.247       .  S
In1132     O1137   2.237       .  S
In1132     O1139   2.256       .  S
In1132     O1140   2.271       .  S
In1132     O1141   2.247       .  S
In1132     O1144   2.215       .  S
C1133      O1139   1.259       .  A
C1133      O1141   1.259       .  A
C1136      O1143   1.262       .  A
C1136      O1137   1.262       .  A
C1136      C1148   1.475       .  S
C1138      O1140   1.265       .  A
C1138      O1144   1.259       .  A
C1145      C1146   1.424       .  A
C1145      C1150   1.441       .  A
C1146      C1147   1.400       .  A
C1146      H1155   1.080       .  S
C1147      C1148   1.399       .  A
C1147      S1151   1.807       .  S
C1148      C1149   1.395       .  A
C1149      C1150   1.404       .  A
C1149      H1156   1.084       .  S
C1150      S1152   1.805       .  S
S1151      H1154   1.407       .  S
S1152      H1153   1.408       .  S
C1157      C1158   1.394       .  A
C1157      C1162   1.402       .  A
C1158      C1159   1.402       .  A
C1158      H1167   1.084       .  S
C1159      C1160   1.448       .  A
C1159      S1163   1.810       .  S
C1160      C1161   1.413       .  A
C1161      C1162   1.396       .  A
C1161      H1168   1.051       .  S
C1162      S1164   1.805       .  S
S1163      H1166   1.400       .  S
S1164      H1165   1.407       .  S
C1169      C1170   1.415       .  A
C1169      C1174   1.430       .  A
C1170      C1171   1.399   1_556  A
C1170      H1179   1.076       .  S
C1171      C1172   1.420       .  A
C1171      S1175   1.798       .  S
C1172      C1173   1.419       .  A
C1173      C1174   1.402   1_554  A
C1173      H1180   1.078       .  S
C1174      S1176   1.811       .  S
S1175      H1178   1.408   1_554  S
S1176      H1177   1.408       .  S
C1181      C1182   1.417       .  A
C1181      C1186   1.435       .  A
C1182      C1183   1.377       .  A
C1182      H1191   1.078       .  S
C1183      C1184   1.398       .  A
C1183      S1187   1.804       .  S
C1184      C1185   1.402       .  A
C1185      C1186   1.418       .  A
C1185      H1192   1.082       .  S
C1186      S1188   1.807       .  S
S1187      H1190   1.406       .  S
S1188      H1189   1.407       .  S
C1193      C1194   1.389       .  A
C1193      C1198   1.403       .  A
C1194      C1195   1.388       .  A
C1194      H1203   1.086       .  S
C1195      C1196   1.443       .  A
C1195      S1199   1.822       .  S
C1196      C1197   1.426       .  A
C1197      C1198   1.407       .  A
C1197      H1204   1.079       .  S
C1198      S1200   1.802       .  S
S1199      H1202   1.387       .  S
S1200      H1201   1.405       .  S
C1205      C1206   1.403       .  A
C1205      C1210   1.405       .  A
C1206      C1207   1.413       .  A
C1206      H1215   1.083       .  S
C1207      C1208   1.430       .  A
C1207      S1211   1.812       .  S
C1208      C1209   1.422       .  A
C1209      C1210   1.386       .  A
C1209      H1216   1.082       .  S
C1210      S1212   1.806       .  S
S1211      H1214   1.396       .  S
S1212      H1213   1.408       .  S
C1217      C1218   1.390       .  A
C1217      C1222   1.402       .  A
C1218      C1219   1.399       .  A
C1218      H1227   1.085       .  S
C1219      C1220   1.454       .  A
C1219      S1223   1.821       .  S
C1220      C1221   1.424       .  A
C1221      C1222   1.401       .  A
C1221      H1228   1.078       .  S
C1222      S1224   1.802       .  S
S1223      H1226   1.382       .  S
S1224      H1225   1.407       .  S
C1229      C1230   1.419       .  A
C1229      C1234   1.440       .  A
C1230      C1231   1.409       .  A
C1230      H1239   1.081       .  S
C1231      C1232   1.408       .  A
C1231      S1235   1.800       .  S
C1232      C1233   1.389       .  A
C1233      C1234   1.386       .  A
C1233      H1240   1.085       .  S
C1234      S1236   1.819       .  S
S1235      H1238   1.406       .  S
S1236      H1237   1.407       .  S
C1241      C1242   1.422       .  A
C1241      C1246   1.443       .  A
C1242      C1243   1.406       .  A
C1242      H1251   1.078       .  S
C1243      C1244   1.402       .  A
C1243      S1247   1.801       .  S
C1244      C1245   1.388       .  A
C1245      C1246   1.389       .  A
C1245      H1252   1.086       .  S
C1246      S1248   1.810       .  S
S1247      H1250   1.406       .  S
S1248      H1249   1.397       .  S
C1253      C1254   1.412       .  A
C1253      C1258   1.427       .  A
C1254      C1255   1.401   1_556  A
C1254      H1263   1.075       .  S
C1255      C1256   1.432       .  A
C1255      S1259   1.804       .  S
C1256      C1257   1.419       .  A
C1257      C1258   1.404   1_554  A
C1257      H1264   1.073       .  S
C1258      S1260   1.815       .  S
S1259      H1262   1.409       .  S
S1260      H1261   1.406       .  S
C1265      C1266   1.395       .  A
C1265      C1270   1.403       .  A
C1266      C1267   1.399       .  A
C1266      H1275   1.085       .  S
C1267      C1268   1.448       .  A
C1267      S1271   1.817       .  S
C1268      C1269   1.423       .  A
C1269      C1270   1.401       .  A
C1269      H1276   1.065       .  S
C1270      S1272   1.800       .  S
S1271      H1274   1.392       .  S
S1272      H1273   1.407       .  S
C1277      C1278   1.400       .  A
C1277      C1282   1.404       .  A
C1278      C1279   1.403       .  A
C1278      H1287   1.084       .  S
C1279      C1280   1.430       .  A
C1279      S1283   1.801       .  S
C1280      C1281   1.424       .  A
C1281      C1282   1.392       .  A
C1281      H1288   1.078       .  S
C1282      S1284   1.803       .  S
S1283      H1286   1.407       .  S
S1284      H1285   1.407       .  S
C1289      C1290   1.399       .  A
C1289      C1294   1.407       .  A
C1290      C1291   1.404       .  A
C1290      H1299   1.083       .  S
C1291      C1292   1.434       .  A
C1291      S1295   1.812       .  S
C1292      C1293   1.420       .  A
C1293      C1294   1.398       .  A
C1293      H1300   1.071       .  S
C1294      S1296   1.803       .  S
S1295      H1298   1.407       .  S
S1296      H1297   1.407       .  S
C1301      C1302   1.415       .  A
C1301      C1306   1.456       .  A
C1302      C1303   1.406       .  A
C1302      H1311   1.083       .  S
C1303      C1304   1.406       .  A
C1303      S1307   1.802       .  S
C1304      C1305   1.385       .  A
C1305      C1306   1.389       .  A
C1305      H1312   1.086       .  S
C1306      S1308   1.819       .  S
S1307      H1310   1.406       .  S
S1308      H1309   1.394       .  S
