geometry optimzed in LAMMPS
_audit_creation_date              2020-11-30 
_audit_creation_method            'lammps2cif' 
_symmetry_space_group_name_H-M    'P1' 
_symmetry_Int_Tables_number       1 
_symmetry_cell_setting            triclinic 
loop_ 
_symmetry_equiv_pos_as_xyz 
  x,y,z 
_cell_length_a                    38.45509308 
_cell_length_b                    37.24011006549282 
_cell_length_c                    24.043626563585867 
_cell_angle_alpha                 90.98759065208294 
_cell_angle_beta                  90.17036895693406 
_cell_angle_gamma                 120.09664502024827 
loop_ 
_atom_site_label 
_atom_site_type_symbol 
_atom_site_fract_x 
_atom_site_fract_y 
_atom_site_fract_z 
_atom_site_charge 
C1          C  0.36452157  0.14744708  0.48604663     0.81700
N2          N  0.37187516  0.18667594  0.49488001    -0.76600
C3          C  0.34133906  0.19485285  0.49558336     0.84100
N4          N  0.30892163  0.18266729  0.01384938    -0.76600
C5          C  0.29656759  0.14162835  0.01673837     0.84200
N6          N  0.32433038  0.12943604  0.02344182    -0.78300
C7          C  0.16124358  0.36768063  0.98939400     0.81700
N8          N  0.20078053  0.37998827  0.98334489    -0.76600
C9          C  0.21315907  0.35161405  0.98240814     0.84100
N10         N  0.18580710  0.31074836  0.98902643    -0.76600
C11         C  0.14624599  0.29828624  0.99503739     0.84200
N12         N  0.13426094  0.32692365  0.99565711    -0.78300
C13         C  0.36790724  0.37821334  0.06251211     0.87900
C14         C  0.32739226  0.37324085  0.04566037    -0.52300
C15         C  0.31311413  0.35372953  0.99515766     0.10900
C16         C  0.33066043  0.32353267  0.47680446     0.21800
C17         C  0.36169207  0.33414299  0.05891381    -0.53000
C18         C  0.34829294  0.31487738  0.00819155     0.11000
C19         C  0.39600503  0.40136575  0.01451234    -0.52600
C20         C  0.37245605  0.36163026  0.46738466     0.11500
H21         H  0.31055341  0.38255751  0.07262730     0.16000
H22         H  0.31421903  0.30766563  0.43771277     0.01800
H23         H  0.36683547  0.31927299  0.09394204     0.16300
H24         H  0.42450965  0.43003701  0.02025093     0.16100
C25         C  0.50576911  0.13188458  0.07686018     0.87900
C26         C  0.05202791  0.17885432  0.06495657    -0.52300
C27         C  0.04751277  0.19731978  0.01895701     0.10900
C28         C  0.50113522  0.16584514  0.46715897     0.21800
C29         C  0.46756171  0.13588212  0.07656909    -0.53000
C30         C  0.46412023  0.15545828  0.03073813     0.11000
C31         C  0.50402194  0.10976911  0.02160951    -0.52600
C32         C  0.49693176  0.12294776  0.45707095     0.11500
H33         H  0.07842643  0.19368850  0.09197957     0.16000
H34         H  0.00264211  0.18305306  0.43184663     0.01800
H35         H  0.44636185  0.12581583  0.11049559     0.17700
H36         H  0.50609799  0.08175335  0.01895558     0.16100
C37         C  0.12911915  0.00483743  0.05996588     0.87900
C38         C  0.13867980  0.46981561  0.04052502    -0.52300
C39         C  0.15889815  0.46956520  0.99374137     0.10900
C40         C  0.16280251  0.49746038  0.46743052     0.21800
C41         C  0.17230023  0.04167801  0.05739503    -0.53000
C42         C  0.19270780  0.04164072  0.01089887     0.11000
C43         C  0.11628535  0.51215852  0.99364936    -0.52600
C44         C  0.11983287  0.49052485  0.46111540     0.11500
H45         H  0.12855553  0.44559311  0.07096562     0.16000
H46         H  0.17610283  0.49473539  0.42773525     0.01800
H47         H  0.18593747  0.06485414  0.09066853     0.16300
H48         H  0.08919410  0.51444684  0.99289400     0.16100
O49         O  0.46966015  0.42764425  0.20354866    -0.83900
O50         O  0.05168105  0.46255962  0.21307991    -0.81000
C51         C  0.06297570  0.98394607  0.19146384     0.99600
O52         O  0.05796652  0.01483745  0.19287508    -0.81000
O53         O  0.02629607  0.06521738  0.21509455    -0.83600
C54         C  0.99413498  0.05335374  0.18717500     1.04100
O55         O  0.45785084  0.01368334  0.19290386    -0.76400
O56         O  0.42229073  0.44259171  0.22254018    -0.76600
C57         C  0.43688096  0.42545264  0.19146788     1.04000
O58         O  0.44353642  0.41835366  0.31724539    -0.83900
O59         O  0.03796452  0.46967622  0.32909687    -0.81000
C60         C  0.05170850  0.98008666  0.34812571     0.99600
O61         O  0.06935449  0.00861316  0.31271277    -0.81000
O62         O  0.03404774  0.05373655  0.33277707    -0.83600
C63         C  0.00410891  0.05678170  0.34602895     1.04000
O64         O  0.46969585  0.03800395  0.31010466    -0.76400
O65         O  0.43779493  0.47202215  0.33983595    -0.76600
C66         C  0.43096152  0.43620979  0.34995171     1.04000
Cr67       Cr  0.49613505  0.44699936  0.27567529     1.93700
Cr68       Cr  0.04341442  0.03235265  0.26302110     1.93200
Cr69       Cr  0.45314887  0.49702914  0.26628554     1.39100
O70         O  0.49054937  0.98189818  0.26174599    -1.21700
C71         C  0.08762801  0.97931015  0.14796725    -0.15000
C72         C  0.10671043  0.00844233  0.10957761    -0.30200
H73         H  0.08680148  0.45203613  0.12651799     0.14000
H74         H  0.10480873  0.03659651  0.11200950     0.14600
C75         C  0.07034549  0.98152012  0.40193456    -0.15000
C76         C  0.10916063  0.00728611  0.41420976    -0.30200
H77         H  0.05086182  0.96031060  0.43325753     0.14000
H78         H  0.06659159  0.45078512  0.40971426     0.14600
C79         C  0.50529523  0.07696192  0.39240059    -0.15000
C80         C  0.49092177  0.10263050  0.40144067    -0.30200
H81         H  0.02749686  0.07847134  0.43015021     0.14000
H82         H  0.47584753  0.10932601  0.36838824     0.14600
C83         C  0.51148650  0.11112616  0.12706056    -0.15000
C84         C  0.48502501  0.07150674  0.13764968    -0.30200
H85         H  0.53795920  0.12812294  0.15363091     0.14000
H86         H  0.96397817  0.06243299  0.11577426     0.14600
C87         C  0.38982898  0.37645292  0.41165850    -0.15000
C88         C  0.40988434  0.41729751  0.40181288    -0.30200
H89         H  0.38537402  0.35405293  0.37889871     0.14000
H90         H  0.41072000  0.43867292  0.43389475     0.14600
C91         C  0.38326860  0.39924325  0.11866093    -0.15000
C92         C  0.41700215  0.40265898  0.13988075    -0.30200
H93         H  0.36725536  0.41186573  0.14133181     0.14000
H94         H  0.43231591  0.38961604  0.11628982     0.14600
C95         C  0.11718056  0.25466092  0.00699416    -0.15000
C96         C  0.07741453  0.23942543  0.00143565    -0.30200
H97         H  0.12855422  0.23499547  0.02161266     0.14000
H98         H  0.06447792  0.25506360  0.47340808     0.14600
C99         C  0.17058848  0.43797899  0.98153347    -0.15000
C100        C  0.14772387  0.39819849  0.99577060    -0.30200
H101        H  0.19874792  0.44794071  0.96022636     0.14000
H102        H  0.11931552  0.38541028  0.53380808     0.14600
C103        C  0.25661597  0.36636556  0.98409899    -0.15000
C104        C  0.27199714  0.34134419  0.97531830    -0.30200
H105        H  0.27642521  0.39831286  0.99787398     0.14000
H106        H  0.24768988  0.30259614  0.47732615     0.14600
C107        C  0.23617959  0.07157332  0.00293117    -0.15000
C108        C  0.25293575  0.11163849  0.01904540    -0.30200
H109        H  0.25445284  0.06042733  0.98317856     0.14000
H110        H  0.24911864  0.05943161  0.45790283     0.14600
C111        C  0.36132215  0.25638385  0.01867744    -0.15000
C112        C  0.33883630  0.27143720  0.99708751    -0.30200
H113        H  0.38057589  0.25808325  0.52781392     0.14000
H114        H  0.31248243  0.25140578  0.97168334     0.14600
C115        C  0.39421221  0.14447736  0.03612205    -0.15000
C116        C  0.43325087  0.16812497  0.02287732    -0.30200
H117        H  0.38363335  0.11374377  0.05249260     0.14000
H118        H  0.44461608  0.19897372  0.48020992     0.14600
C119        C  0.36430021  0.15815232  0.02649112     0.81700
N120        N  0.37618113  0.19928893  0.02358719    -0.76600
C121        C  0.34859586  0.21164726  0.01662124     0.84100
N122        N  0.30281218  0.16316414  0.48857550    -0.76600
C123        C  0.29537556  0.12364136  0.47954946     0.84200
N124        N  0.32629614  0.11603802  0.47859740    -0.78300
C125        C  0.16109403  0.36390821  0.50973547     0.81700
N126        N  0.20055128  0.37471970  0.51119977    -0.76600
C127        C  0.21113740  0.34492296  0.50927193     0.84100
N128        N  0.18200034  0.30420800  0.50693780    -0.76600
C129        C  0.14258406  0.29318980  0.50540703     0.84200
N130        N  0.13231002  0.32316314  0.50741703    -0.78300
C131        C  0.36943265  0.36075847  0.56855866     0.87900
C132        C  0.32905924  0.35946357  0.56167402    -0.52300
C133        C  0.30866874  0.33991012  0.51356542     0.10900
C134        C  0.34140957  0.34145112  0.96571016     0.21800
C135        C  0.35894539  0.31528551  0.56311725    -0.53000
C136        C  0.33861482  0.29578251  0.51498928     0.11000
C137        C  0.39264954  0.38094017  0.51561281    -0.52600
C138        C  0.38225972  0.38243414  0.96374898     0.11500
H139        H  0.31717789  0.37159654  0.59303946     0.16000
H140        H  0.33009192  0.32578035  0.92451414     0.01800
H141        H  0.36679584  0.29988094  0.59457280     0.16300
H142        H  0.42270813  0.40791748  0.51634448     0.16100
C143        C  0.50038642  0.12822656  0.55816617     0.87900
C144        C  0.03962048  0.17368082  0.55648950    -0.52300
C145        C  0.04048651  0.19243566  0.50763748     0.10900
C146        C  0.49880291  0.16856440  0.98957919     0.21800
C147        C  0.46611596  0.13777082  0.55362081    -0.53000
C148        C  0.46660629  0.15729330  0.50591604     0.11000
C149        C  0.49669165  0.10355832  0.50499497    -0.52600
C150        C  0.50054526  0.12906307  0.97584383     0.11500
H151        H  0.06349614  0.18760262  0.58768836     0.16000
H152        H  0.00372027  0.18600586  0.95032692     0.01800
H153        H  0.44306322  0.12921592  0.58487123     0.17700
H154        H  0.49233252  0.07240196  0.50567425     0.16100
C155        C  0.12571293  0.00739667  0.57170717     0.87900
C156        C  0.14225840  0.46903976  0.56004274    -0.52300
C157        C  0.15873783  0.46583871  0.51114073     0.10900
C158        C  0.17350303  0.50828135  0.95818268     0.21800
C159        C  0.16662293  0.04714761  0.56834960    -0.53000
C160        C  0.18738988  0.04975065  0.52154254     0.11000
C161        C  0.10343114  0.49335506  0.50976497    -0.52600
C162        C  0.13544932  0.51101447  0.94657969     0.11500
H163        H  0.13776478  0.44934575  0.59525420     0.16000
H164        H  0.18963269  0.50784572  0.92013579     0.01800
H165        H  0.17799914  0.07177937  0.59995781     0.16300
H166        H  0.07324457  0.48876870  0.51218599     0.16100
O167        O  0.44311756  0.43149021  0.71497568    -0.83900
O168        O  0.03941904  0.45277804  0.71545205    -0.81000
C169        C  0.04700105  0.97957380  0.68626531     0.99600
O170        O  0.06705744  0.00764259  0.72232860    -0.81000
O171        O  0.04386158  0.06277785  0.69253243    -0.83600
C172        C  0.02024622  0.07627625  0.68415378     1.04100
O173        O  0.48216740  0.05116712  0.69862974    -0.76400
O174        O  0.43835033  0.48423121  0.68446486    -0.76600
C175        C  0.42989302  0.44701937  0.67976080     1.04000
O176        O  0.46396158  0.44930283  0.83239491    -0.83900
O177        O  0.01944837  0.45602222  0.83068274    -0.81000
C178        C  0.05486030  0.98828626  0.84236446     0.99600
O179        O  0.06039036  0.02429535  0.83615588    -0.81000
O180        O  0.04426758  0.08575303  0.80848084    -0.83600
C181        C  0.01687997  0.08066197  0.84188391     1.04000
O182        O  0.49760555  0.07486403  0.81469427    -0.76400
O183        O  0.42225992  0.46840873  0.80098879    -0.76600
C184        C  0.43110550  0.44897820  0.83576788     1.04000
Cr185      Cr  0.49410521  0.46022060  0.76226741     1.93700
Cr186      Cr  0.04982865  0.04230106  0.76493385     1.93200
Cr187      Cr  0.45801460  0.51736918  0.75366969     1.39100
O188        O  0.50107892  0.00744738  0.76715232    -1.21700
C189        C  0.06714771  0.97602470  0.63621209    -0.15000
C190        C  0.10425296  0.00662055  0.62417629    -0.30200
H191        H  0.06839054  0.44317296  0.61727009     0.14000
H192        H  0.11959897  0.03299640  0.65288757     0.14600
C193        C  0.07507209  0.98063378  0.88875615    -0.15000
C194        C  0.11334353  0.00781633  0.90352692    -0.30200
H195        H  0.05730419  0.95345052  0.91372290     0.14000
H196        H  0.13772436  0.52653074  0.85662254     0.14600
C197        C  0.52655382  0.10109498  0.90432103    -0.15000
C198        C  0.50136982  0.11486687  0.91830344    -0.30200
H199        H  0.05761743  0.12826590  0.90326818     0.14000
H200        H  0.48125606  0.11595468  0.88745014     0.14600
C201        C  0.49586841  0.10292892  0.60885899    -0.15000
C202        C  0.52476573  0.11071613  0.64667775    -0.30200
H203        H  0.46668441  0.07501003  0.61268545     0.14000
H204        H  0.04934708  0.10585562  0.60549663     0.14600
C205        C  0.40680560  0.39953860  0.91343562    -0.15000
C206        C  0.40235419  0.42581163  0.88045689    -0.30200
H207        H  0.43191183  0.39429423  0.90755827     0.14000
H208        H  0.37744895  0.43126306  0.88743981     0.14600
C209        C  0.39253789  0.38246230  0.62149109    -0.15000
C210        C  0.40416558  0.42247342  0.63201804    -0.30200
H211        H  0.40082121  0.36574124  0.65027458     0.14000
H212        H  0.39544877  0.43861535  0.60279579     0.14600
C213        C  0.11145389  0.24900098  0.50888221    -0.15000
C214        C  0.07288241  0.23484358  0.49428867    -0.30200
H215        H  0.12023808  0.22780354  0.52581042     0.14000
H216        H  0.06618155  0.25802837  0.98266782     0.14600
C217        C  0.17180713  0.43501832  0.50134902    -0.15000
C218        C  0.14881417  0.39541421  0.51657984    -0.30200
H219        H  0.19965172  0.44460028  0.47939633     0.14000
H220        H  0.11827394  0.38767994  0.01344829     0.14600
C221        C  0.25380725  0.35671761  0.51594336    -0.15000
C222        C  0.26739601  0.33113092  0.50035552    -0.30200
H223        H  0.27430299  0.38676766  0.53503708     0.14000
H224        H  0.25335657  0.31021726  0.95801689     0.14600
C225        C  0.22608598  0.08770433  0.51098765    -0.15000
C226        C  0.25425887  0.08791582  0.47841197    -0.30200
H227        H  0.23319270  0.11546453  0.53543328     0.14000
H228        H  0.23374100  0.12326532  0.03414498     0.14600
C229        C  0.35095128  0.23744798  0.50985974    -0.15000
C230        C  0.32621981  0.25224596  0.50000074    -0.30200
H231        H  0.38938778  0.27736755  0.04020557     0.14000
H232        H  0.29800804  0.23335389  0.47761853     0.14600
C233        C  0.39680255  0.13788021  0.49240969    -0.15000
C234        C  0.43553757  0.16743395  0.49180231    -0.30200
H235        H  0.38858723  0.10590370  0.50013471     0.14000
H236        H  0.44292004  0.19729339  0.00221337     0.14600
C237        C  0.35517279  0.65985134  0.48465195     0.81700
N238        N  0.36668392  0.70073895  0.48515538    -0.76600
C239        C  0.33901799  0.71305455  0.48524004     0.84100
N240        N  0.31256372  0.68431323  0.99870404    -0.76600
C241        C  0.30151788  0.64394277  0.00379241     0.84200
N242        N  0.32999783  0.63317271  0.01286630    -0.78300
C243        C  0.14878491  0.86106547  0.98716115     0.81700
N244        N  0.18811372  0.87194272  0.98463505    -0.76600
C245        C  0.19894169  0.84263977  0.97843747     0.84100
N246        N  0.17005431  0.80189329  0.97563263    -0.76600
C247        C  0.13052210  0.79058024  0.97770318     0.84200
N248        N  0.12002331  0.82027681  0.98424431    -0.78300
C249        C  0.35510558  0.87038949  0.05704095     0.87900
C250        C  0.31232145  0.86090912  0.04495279    -0.52300
C251        C  0.29760854  0.84205257  0.99415229     0.10900
C252        C  0.32946018  0.84462366  0.47748457     0.21800
C253        C  0.35363974  0.82868045  0.04968229    -0.53000
C254        C  0.33992491  0.81015690  0.99881312     0.11000
C255        C  0.37972320  0.89647260  0.00807333    -0.52600
C256        C  0.36862529  0.88670234  0.47453521     0.11500
H257        H  0.29501805  0.86801381  0.07419364     0.16000
H258        H  0.31408089  0.83221865  0.43662259     0.01800
H259        H  0.36245531  0.81488653  0.08229551     0.16300
H260        H  0.40678286  0.92653469  0.01359143     0.16100
C261        C  0.50999580  0.63707520  0.06930633     0.87900
C262        C  0.03627473  0.67101951  0.03799075    -0.52300
C263        C  0.03067134  0.68853155  0.99192981     0.10900
C264        C  0.49326712  0.67447109  0.46464040     0.21800
C265        C  0.47330534  0.64363618  0.06962627    -0.53000
C266        C  0.46884758  0.66050501  0.02156540     0.11000
C267        C  0.50390692  0.61038018  0.01704920    -0.52600
C268        C  0.49105618  0.63235963  0.45487986     0.11500
H269        H  0.06299603  0.68688187  0.06431872     0.16000
H270        H  0.99928120  0.68306760  0.42834922     0.01800
H271        H  0.45366935  0.63683311  0.10503259     0.17700
H272        H  0.50267678  0.58059120  0.01777440     0.16100
C273        C  0.13551558  0.50937416  0.04753533     0.87900
C274        C  0.13346675  0.96593423  0.05296157    -0.52300
C275        C  0.15362538  0.96617302  0.00591087     0.10900
C276        C  0.16541385  0.01160406  0.48207512     0.21800
C277        C  0.17903700  0.54510736  0.04544204    -0.53000
C278        C  0.19906417  0.54446534  0.99880320     0.11000
C279        C  0.10899075  0.00624849  0.00590702    -0.52600
C280        C  0.12459173  0.00834685  0.47081415     0.11500
H281        H  0.12278212  0.94094136  0.08227722     0.16000
H282        H  0.18178285  0.01297605  0.44350809     0.01800
H283        H  0.19307265  0.56808100  0.07887191     0.16300
H284        H  0.08137685  0.00754397  0.00468134     0.16100
O285        O  0.46186051  0.91929606  0.18937669    -0.83900
O286        O  0.04677838  0.95651731  0.22781758    -0.81000
C287        C  0.06510351  0.48783215  0.17346660     0.99600
O288        O  0.05870493  0.51791225  0.17160903    -0.81000
O289        O  0.02479084  0.56768948  0.19300750    -0.83600
C290        C  0.99167081  0.55105920  0.16607961     1.04100
O291        O  0.46433561  0.52267464  0.19352650    -0.76400
O292        O  0.41458297  0.93290697  0.21488715    -0.76600
C293        C  0.42889408  0.91760633  0.18024929     1.04000
O294        O  0.43420237  0.90267392  0.30099152    -0.83900
O295        O  0.01709990  0.94976536  0.33843829    -0.81000
C296        C  0.07343194  0.49990367  0.32608678     0.99600
O297        O  0.08337265  0.52486743  0.28615843    -0.81000
O298        O  0.04293878  0.56501152  0.31007554    -0.83600
C299        C  0.01307806  0.56804117  0.32408246     1.04000
O300        O  0.47564678  0.55209147  0.30838570    -0.76400
O301        O  0.42969171  0.95526248  0.33326507    -0.76600
C302        C  0.42058890  0.91791495  0.33607015     1.04000
Cr303      Cr  0.48741310  0.93286573  0.26248105     1.93700
Cr304      Cr  0.04881306  0.54048505  0.24065973     1.93200
Cr305      Cr  0.44610869  0.98479254  0.26299971     1.39100
O306        O  0.49824741  0.49525596  0.26794088    -1.21700
C307        C  0.08925700  0.48223549  0.13034773    -0.15000
C308        C  0.11313237  0.51328549  0.09675548    -0.30200
H309        H  0.08867895  0.95080467  0.14709945     0.14000
H310        H  0.11448940  0.54303901  0.10194218     0.14600
C311        C  0.10377035  0.50665267  0.36921731    -0.15000
C312        C  0.09564101  0.47915477  0.40943264    -0.30200
H313        H  0.13204331  0.53593268  0.37034901     0.14000
H314        H  0.12988070  0.02643401  0.38244375     0.14600
C315        C  0.50826604  0.59221697  0.39118031    -0.15000
C316        C  0.48917876  0.61362451  0.39917476    -0.30200
H317        H  0.04028677  0.59281999  0.40571155     0.14000
H318        H  0.47283193  0.61774597  0.36533787     0.14600
C319        C  0.51656192  0.61854825  0.12158718    -0.15000
C320        C  0.48959633  0.57986143  0.13643730    -0.30200
H321        H  0.54434744  0.63596809  0.14545586     0.14000
H322        H  0.95593039  0.55296486  0.09545818     0.14600
C323        C  0.38612864  0.90958054  0.42370475    -0.15000
C324        C  0.39441686  0.89206683  0.38059940    -0.30200
H325        H  0.39829892  0.94297677  0.42562375     0.14000
H326        H  0.38503457  0.85924866  0.38079287     0.14600
C327        C  0.37198107  0.89076964  0.11286602    -0.15000
C328        C  0.40819136  0.89731458  0.12820964    -0.30200
H329        H  0.35494308  0.89959695  0.14020762     0.14000
H330        H  0.42421969  0.88764739  0.10005726     0.14600
C331        C  0.10013806  0.74618609  0.98165862    -0.15000
C332        C  0.06040121  0.73123581  0.97502234    -0.30200
H333        H  0.11081612  0.72530274  0.99345132     0.14000
H334        H  0.05868190  0.75621424  0.46957743     0.14600
C335        C  0.16319200  0.93343777  0.99081963    -0.15000
C336        C  0.13754666  0.89292667  0.99907061    -0.30200
H337        H  0.19167993  0.94306855  0.97061565     0.14000
H338        H  0.11046527  0.89060457  0.52460657     0.14600
C339        C  0.24177135  0.85545014  0.98431734    -0.15000
C340        C  0.25654496  0.83002331  0.97474085    -0.30200
H341        H  0.26168660  0.88661632  0.00083238     0.14000
H342        H  0.24366518  0.81254230  0.48469293     0.14600
C343        C  0.24228686  0.57385717  0.99063447    -0.15000
C344        C  0.25846297  0.61365102  0.00677610    -0.30200
H345        H  0.26059233  0.56286499  0.97058268     0.14000
H346        H  0.22538355  0.62347458  0.51077311     0.14600
C347        C  0.36193809  0.75813681  0.00230550    -0.15000
C348        C  0.33563324  0.76941355  0.98400946    -0.30200
H349        H  0.38313741  0.77685961  0.51097367     0.14000
H350        H  0.30908580  0.74757262  0.96018980     0.14600
C351        C  0.39999603  0.65069476  0.02823332    -0.15000
C352        C  0.43840205  0.67334746  0.01229337    -0.30200
H353        H  0.39007953  0.62124215  0.04826456     0.14000
H354        H  0.43484885  0.70351994  0.46492538     0.14600
C355        C  0.36957419  0.66292460  0.01579427     0.81700
N356        N  0.38033935  0.70365485  0.01055437    -0.76600
C357        C  0.35172429  0.71430233  0.00136279     0.84100
N358        N  0.29924712  0.68409523  0.48598199    -0.76600
C359        C  0.28720723  0.64296375  0.48519676     0.84200
N360        N  0.31535317  0.63095741  0.48525201    -0.78300
C361        C  0.15406202  0.87017315  0.50608852     0.81700
N362        N  0.19365695  0.88219864  0.51165346    -0.76600
C363        C  0.20551052  0.85351397  0.51170969     0.84100
N364        N  0.17757477  0.81263362  0.50698288    -0.76600
C365        C  0.13801431  0.80008473  0.50154063     0.84200
N366        N  0.12614286  0.82895513  0.50177103    -0.78300
C367        C  0.36564399  0.87409370  0.57306703     0.87900
C368        C  0.32291885  0.86761820  0.57061645    -0.52300
C369        C  0.30413232  0.85225212  0.52018141     0.10900
C370        C  0.32741333  0.83441753  0.96027799     0.21800
C371        C  0.36068114  0.83172968  0.55671892    -0.53000
C372        C  0.34142015  0.81614121  0.50675351     0.11000
C373        C  0.38734993  0.90209908  0.52441179    -0.52600
C374        C  0.36527545  0.87771131  0.95717950     0.11500
H375        H  0.30872420  0.87387427  0.60549797     0.16000
H376        H  0.31551401  0.81903704  0.91906150     0.01800
H377        H  0.37005508  0.81482989  0.58346356     0.16300
H378        H  0.41547302  0.93136385  0.52885390     0.16100
C379        C  0.48998388  0.63605873  0.55594689     0.87900
C380        C  0.04442271  0.67324588  0.54435440    -0.52300
C381        C  0.04109516  0.69317128  0.49910168     0.10900
C382        C  0.50098641  0.66871180  0.97790168     0.21800
C383        C  0.45471995  0.64384198  0.54817971    -0.53000
C384        C  0.45621432  0.66363273  0.50016048     0.11000
C385        C  0.48934937  0.61240810  0.50296585    -0.52600
C386        C  0.49912130  0.62666519  0.96937620     0.11500
H387        H  0.06935958  0.68787514  0.57387676     0.16000
H388        H  0.98534472  0.67524965  0.92481972     0.01800
H389        H  0.43062728  0.63442183  0.57793466     0.17700
H390        H  0.48662957  0.58193934  0.50358403     0.16100
C391        C  0.13096325  0.50317464  0.56039326     0.87900
C392        C  0.13443060  0.97172187  0.56518320    -0.52300
C393        C  0.15495159  0.97359407  0.51797173     0.10900
C394        C  0.16761139  0.00493268  0.97057294     0.21800
C395        C  0.17000181  0.54301853  0.54591373    -0.53000
C396        C  0.18711894  0.53995836  0.49748477     0.11000
C397        C  0.10373447  0.00625362  0.51791159    -0.52600
C398        C  0.12877553  0.00616008  0.95911089     0.11500
H399        H  0.12529068  0.94728711  0.59531014     0.16000
H400        H  0.18384828  0.00497314  0.93239707     0.01800
H401        H  0.18401524  0.57015875  0.57344361     0.16300
H402        H  0.07463272  0.00440246  0.51721814     0.16100
O403        O  0.45476184  0.94288119  0.69715228    -0.83900
O404        O  0.01005105  0.95518076  0.69277385    -0.81000
C405        C  0.05576590  0.47991273  0.67835798     0.99600
O406        O  0.05237778  0.51182643  0.67883513    -0.81000
O407        O  0.02031850  0.56274961  0.69791290    -0.83600
C408        C  0.98873442  0.54834006  0.66759115     1.04100
O409        O  0.48376916  0.56765895  0.70495651    -0.76400
O410        O  0.42203438  0.97383748  0.72576790    -0.76600
C411        C  0.42560686  0.94915435  0.69280406     1.04000
O412        O  0.43810511  0.93583920  0.81384746    -0.83900
O413        O  0.03139010  0.95849145  0.81010347    -0.81000
C414        C  0.05525208  0.48501854  0.83373702     0.99600
O415        O  0.06989931  0.51187821  0.79588506    -0.81000
O416        O  0.03140813  0.55481904  0.81635221    -0.83600
C417        C  0.00232796  0.56011393  0.82667855     1.04000
O418        O  0.47500022  0.55116867  0.82287210    -0.76400
O419        O  0.44371034  0.99509246  0.84129647    -0.76600
C420        C  0.43036398  0.95698374  0.84820882     1.04000
Cr421      Cr  0.48666672  0.95415497  0.76583021     1.93700
Cr422      Cr  0.03983117  0.53203266  0.74735764     1.93200
Cr423      Cr  0.46414679  0.02258449  0.76977503     1.39100
O424        O  0.50034412  0.51058788  0.75646341    -1.21700
C425        C  0.07897968  0.47426160  0.63410271    -0.15000
C426        C  0.11164843  0.50691379  0.61298495    -0.30200
H427        H  0.05089133  0.94988553  0.60744199     0.14000
H428        H  0.12309817  0.53752194  0.63212679     0.14600
C429        C  0.07820376  0.48653929  0.88344950    -0.15000
C430        C  0.11824559  0.50944235  0.89062698    -0.30200
H431        H  0.06020575  0.46705515  0.91719206     0.14000
H432        H  0.13223245  0.03358527  0.87701376     0.14600
C433        C  0.51349994  0.61491989  0.87284674    -0.15000
C434        C  0.48896280  0.60251870  0.91670399    -0.30200
H435        H  0.02923826  0.58708333  0.90739209     0.14000
H436        H  0.46392244  0.57084220  0.91765195     0.14600
C437        C  0.48752468  0.61335723  0.60866485    -0.15000
C438        C  0.51497103  0.60238621  0.62114527    -0.30200
H439        H  0.46232950  0.60489287  0.63619521     0.14000
H440        H  0.95791340  0.55452122  0.59387523     0.14600
C441        C  0.38549979  0.89624126  0.90434457    -0.15000
C442        C  0.40612442  0.93754483  0.89767200    -0.30200
H443        H  0.38332432  0.87544258  0.87055956     0.14000
H444        H  0.40587385  0.95808817  0.93012482     0.14600
C445        C  0.38830009  0.89134385  0.62701644    -0.15000
C446        C  0.39562720  0.92804214  0.64820289    -0.30200
H447        H  0.40185008  0.87513053  0.64665054     0.14000
H448        H  0.38092132  0.94373076  0.63050650     0.14600
C449        C  0.10895306  0.75510851  0.50277619    -0.15000
C450        C  0.06994901  0.73763461  0.48827581    -0.30200
H451        H  0.12037810  0.73549374  0.51742204     0.14000
H452        H  0.04938698  0.75088820  0.95921905     0.14600
C453        C  0.16623209  0.94200635  0.50330103    -0.15000
C454        C  0.14108635  0.90126216  0.51151412    -0.30200
H455        H  0.19577223  0.95258896  0.48594242     0.14000
H456        H  0.10777369  0.88297019  0.01518289     0.14600
C457        C  0.24801236  0.86638346  0.52168891    -0.15000
C458        C  0.26240732  0.84130742  0.50787239    -0.30200
H459        H  0.26776430  0.89674923  0.54060475     0.14000
H460        H  0.23817501  0.79981994  0.95471325     0.14600
C461        C  0.22820783  0.57166575  0.48030756    -0.15000
C462        C  0.24418023  0.61231788  0.49272478    -0.30200
H463        H  0.24608891  0.56090525  0.45848872     0.14000
H464        H  0.23903773  0.62502520  0.02181500     0.14600
C465        C  0.35290780  0.75740209  0.49418094    -0.15000
C466        C  0.32937435  0.77386629  0.48588556    -0.30200
H467        H  0.38988036  0.78088539  0.02260664     0.14000
H468        H  0.30029022  0.75576776  0.46528215     0.14600
C469        C  0.38564998  0.64725474  0.49190584    -0.15000
C470        C  0.42503334  0.67370765  0.48380743    -0.30200
H471        H  0.37580165  0.61628592  0.50690186     0.14000
H472        H  0.44733721  0.70076950  0.98771895     0.14600
C473        C  0.86575639  0.15353334  0.48859326     0.81700
N474        N  0.87165614  0.19251128  0.49537204    -0.76600
C475        C  0.84028040  0.19946391  0.49060091     0.84100
N476        N  0.80800459  0.16446205  0.00465396    -0.76600
C477        C  0.80201633  0.12514368  0.00104725     0.84200
N478        N  0.83335906  0.11877634  0.01002986    -0.78300
C479        C  0.65699081  0.36359685  0.00891953     0.81700
N480        N  0.69621082  0.37428515  0.00254393    -0.76600
C481        C  0.70639544  0.34419486  0.99689483     0.84100
N482        N  0.67725450  0.30358444  0.99883365    -0.76600
C483        C  0.63823294  0.29301044  0.00494260     0.84200
N484        N  0.62843400  0.32308009  0.01047642    -0.78300
C485        C  0.86177266  0.36325813  0.06288554     0.87900
C486        C  0.82114399  0.35948107  0.05046683    -0.52300
C487        C  0.80266948  0.33735395  0.00300418     0.10900
C488        C  0.82594049  0.32567696  0.45774830     0.21800
C489        C  0.85344301  0.31834719  0.06326750    -0.53000
C490        C  0.83580912  0.29600947  0.01539287     0.11000
C491        C  0.88641137  0.38187177  0.01013681    -0.52600
C492        C  0.86832177  0.36443939  0.45391124     0.11500
H493        H  0.80758411  0.37230120  0.07802974     0.16000
H494        H  0.81313417  0.30980083  0.41706063     0.01800
H495        H  0.86121933  0.30558202  0.09828523     0.16300
H496        H  0.91566996  0.40995968  0.01097971     0.16100
C497        C  0.01589558  0.13567750  0.07537892     0.87900
C498        C  0.54071935  0.17615092  0.07001193    -0.52300
C499        C  0.53718570  0.19513560  0.02408755     0.10900
C500        C  0.00213277  0.16792649  0.47150816     0.21800
C501        C  0.97930512  0.14220725  0.07769888    -0.53000
C502        C  0.97491999  0.16076014  0.03164226     0.11000
C503        C  0.01028340  0.11119632  0.02089703    -0.52600
C504        C  0.99687038  0.12423984  0.46380229     0.11500
H505        H  0.56626119  0.19105244  0.09856617     0.16000
H506        H  0.50116515  0.18174293  0.42844258     0.01800
H507        H  0.95895053  0.13315078  0.11259490     0.17700
H508        H  0.00925250  0.08150921  0.01869548     0.16100
C509        C  0.62608707  0.00644495  0.06127517     0.87900
C510        C  0.63199150  0.46537912  0.05949720    -0.52300
C511        C  0.65156124  0.46392735  0.01252676     0.10900
C512        C  0.67179345  0.50871813  0.47998517     0.21800
C513        C  0.66600478  0.04731942  0.06005636    -0.53000
C514        C  0.68920544  0.05098448  0.01550531     0.11000
C515        C  0.60265350  0.49949019  0.00781177    -0.52600
C516        C  0.63480891  0.51385576  0.47096275     0.11500
H517        H  0.62421178  0.44326762  0.09246987     0.16000
H518        H  0.68650870  0.50759366  0.44080581     0.01800
H519        H  0.67510870  0.07161253  0.09183089     0.16300
H520        H  0.57372394  0.49805001  0.00724409     0.16100
O521        O  0.97148738  0.42189951  0.19452083    -0.83900
O522        O  0.54794392  0.46334309  0.23560334    -0.81000
C523        C  0.55598522  0.97848481  0.18792123     0.99600
O524        O  0.55082764  0.00924125  0.18961025    -0.81000
O525        O  0.52023141  0.06055528  0.21336561    -0.83600
C526        C  0.48851655  0.04778602  0.18376443     1.04100
O527        O  0.96256704  0.02035632  0.19816027    -0.76400
O528        O  0.92498739  0.43788629  0.21442467    -0.76600
C529        C  0.93801771  0.41868320  0.18440674     1.04000
O530        O  0.95501267  0.41924873  0.31193310    -0.83900
O531        O  0.52282373  0.46483000  0.34831266    -0.81000
C532        C  0.54853913  0.97492448  0.34358600     0.99600
O533        O  0.56524806  0.00332716  0.30776987    -0.81000
O534        O  0.52963037  0.04773660  0.33007672    -0.83600
C535        C  0.50105691  0.05358875  0.34083280     1.04000
O536        O  0.97187397  0.03914820  0.31706935    -0.76400
O537        O  0.94570499  0.47146787  0.32966683    -0.76600
C538        C  0.94076927  0.43680222  0.34229857     1.04000
Cr539      Cr  0.00379648  0.44690668  0.26175882     1.93700
Cr540      Cr  0.53818220  0.02716940  0.25989366     1.93200
Cr541      Cr  0.95710722  0.49390761  0.25464476     1.39100
O542        O  0.99572757  0.98662239  0.26405665    -1.21700
C543        C  0.58197341  0.97575919  0.14539383    -0.15000
C544        C  0.60044928  0.00617680  0.10857476    -0.30200
H545        H  0.58876833  0.45415740  0.15550887     0.14000
H546        H  0.59568585  0.03259526  0.11053638     0.14600
C547        C  0.56889564  0.97583707  0.39586490    -0.15000
C548        C  0.60819721  0.00101156  0.40635043    -0.30200
H549        H  0.55001794  0.95535315  0.42821730     0.14000
H550        H  0.63887540  0.52795526  0.38036422     0.14600
C551        C  0.00772199  0.07951127  0.39858899    -0.15000
C552        C  0.99098342  0.10301829  0.40865007    -0.30200
H553        H  0.52396473  0.07441075  0.42434658     0.14000
H554        H  0.97448510  0.10811893  0.37597616     0.14600
C555        C  0.02103876  0.11485961  0.12587324    -0.15000
C556        C  0.99172130  0.07709711  0.14024401    -0.30200
H557        H  0.04884605  0.13041093  0.15004578     0.14000
H558        H  0.45849051  0.05528728  0.11092828     0.14600
C559        C  0.89099392  0.37884175  0.40082866    -0.15000
C560        C  0.91925881  0.41887452  0.39437242    -0.30200
H561        H  0.88282621  0.35696610  0.36606365     0.14000
H562        H  0.92404663  0.44130657  0.42723247     0.14600
C563        C  0.88106873  0.38807848  0.11604494    -0.15000
C564        C  0.91543169  0.39216129  0.13593837    -0.30200
H565        H  0.86698837  0.40310924  0.13801704     0.14000
H566        H  0.92907877  0.37686644  0.11345483     0.14600
C567        C  0.60735182  0.24952147  0.01246093    -0.15000
C568        C  0.56807257  0.23702670  0.00809513    -0.30200
H569        H  0.61693074  0.22769357  0.02403635     0.14000
H570        H  0.55953029  0.25268913  0.47087844     0.14600
C571        C  0.66557337  0.43385333  0.00255120    -0.15000
C572        C  0.64458028  0.39464469  0.01943114    -0.30200
H573        H  0.69251212  0.44366993  0.97823193     0.14000
H574        H  0.61586012  0.38732141  0.53912982     0.14600
C575        C  0.74921918  0.35575630  0.99737217    -0.15000
C576        C  0.76174461  0.32835870  0.98645180    -0.30200
H577        H  0.77086269  0.38710202  0.01145439     0.14000
H578        H  0.73930314  0.30173445  0.45238491     0.14600
C579        C  0.72847493  0.08934559  0.00885044    -0.15000
C580        C  0.76138277  0.08860189  0.99257358    -0.30200
H581        H  0.73163947  0.11803028  0.02608764     0.14000
H582        H  0.75295261  0.06164905  0.45520580     0.14600
C583        C  0.85226631  0.23991268  0.02447769    -0.15000
C584        C  0.82730827  0.25267315  0.00535436    -0.30200
H585        H  0.87476198  0.26298919  0.52550669     0.14000
H586        H  0.80144127  0.23185549  0.97965750     0.14600
C587        C  0.90370217  0.14285375  0.03380424    -0.15000
C588        C  0.94231398  0.17055060  0.02359339    -0.30200
H589        H  0.89587078  0.11218872  0.04804319     0.14000
H590        H  0.94660119  0.20252458  0.47708449     0.14600
C591        C  0.87061015  0.15111971  0.02193320     0.81700
N592        N  0.87640521  0.19025244  0.02541780    -0.76600
C593        C  0.84529994  0.19719150  0.01655264     0.84100
N594        N  0.80263377  0.16682873  0.48018219    -0.76600
C595        C  0.79669555  0.12766430  0.47345843     0.84200
N596        N  0.82830441  0.12137332  0.47805555    -0.78300
C597        C  0.65474524  0.36499797  0.50364392     0.81700
N598        N  0.69358100  0.37621867  0.49275408    -0.76600
C599        C  0.70432689  0.34684341  0.48486925     0.84100
N600        N  0.67620546  0.30612856  0.48925454    -0.76600
C601        C  0.63741278  0.29459325  0.49968015     0.84200
N602        N  0.62679457  0.32409442  0.50739142    -0.78300
C603        C  0.85556673  0.36284555  0.55357014     0.87900
C604        C  0.81629341  0.36081890  0.53763902    -0.52300
C605        C  0.80041492  0.34141785  0.48770957     0.10900
C606        C  0.82704274  0.32060765  0.97195920     0.21800
C607        C  0.84634432  0.31758021  0.55060538    -0.53000
C608        C  0.83122651  0.29814719  0.50015395     0.11000
C609        C  0.88351637  0.38376932  0.50450808    -0.52600
C610        C  0.86834675  0.35961659  0.96213700     0.11500
H611        H  0.80134585  0.37223880  0.56495705     0.16000
H612        H  0.81213405  0.30247213  0.93333528     0.01800
H613        H  0.85179662  0.30252429  0.58510440     0.16300
H614        H  0.91317689  0.41085418  0.51017047     0.16100
C615        C  0.00063056  0.13244227  0.56478125     0.87900
C616        C  0.53900904  0.17047170  0.55135826    -0.52300
C617        C  0.53906035  0.19030830  0.50379877     0.10900
C618        C  0.00734795  0.17107943  0.98782284     0.21800
C619        C  0.96693809  0.14278505  0.55858048    -0.53000
C620        C  0.96774523  0.16133470  0.50980413     0.11000
C621        C  0.99632414  0.10584457  0.51295327    -0.52600
C622        C  0.00572699  0.12972339  0.97524763     0.11500
H623        H  0.56273913  0.18492887  0.58253817     0.16000
H624        H  0.49633336  0.18441037  0.95227879     0.01800
H625        H  0.94424421  0.13590998  0.58989887     0.17700
H626        H  0.99196520  0.07474529  0.51516099     0.16100
C627        C  0.62800567  0.01136958  0.56415945     0.87900
C628        C  0.63829670  0.47098172  0.56337362    -0.52300
C629        C  0.65652079  0.46954825  0.51506704     0.10900
C630        C  0.66176143  0.49930958  0.97235777     0.21800
C631        C  0.66735481  0.05202987  0.55568746    -0.53000
C632        C  0.68782911  0.05249229  0.50960929     0.11000
C633        C  0.61720887  0.51569331  0.51953293    -0.52600
C634        C  0.62140617  0.49759142  0.96063811     0.11500
H635        H  0.62709246  0.44663113  0.59385636     0.16000
H636        H  0.67737755  0.49789343  0.93428460     0.01800
H637        H  0.67812423  0.07880719  0.58373709     0.16300
H638        H  0.59124728  0.51990444  0.52098234     0.16100
O639        O  0.96059920  0.41649802  0.69048344    -0.83900
O640        O  0.52255889  0.46551913  0.69220862    -0.81000
C641        C  0.55421639  0.99063169  0.68491565     0.99600
O642        O  0.56054522  0.02689644  0.69431888    -0.81000
O643        O  0.54495287  0.08848843  0.72628617    -0.83600
C644        C  0.51688058  0.08190788  0.69265634     1.04100
O645        O  0.99275860  0.06940745  0.71853377    -0.76400
O646        O  0.91495240  0.43391109  0.70906373    -0.76600
C647        C  0.92783028  0.41442015  0.67929568     1.04000
O648        O  0.93910171  0.41048355  0.80687992    -0.83900
O649        O  0.54428569  0.47907396  0.81077100    -0.81000
C650        C  0.55391048  0.98470228  0.84149479     0.99600
O651        O  0.57298722  0.01335117  0.80747195    -0.81000
O652        O  0.54793184  0.06723410  0.84120165    -0.83600
C653        C  0.52415097  0.08055050  0.85045936     1.04000
O654        O  0.98170322  0.05064388  0.83537627    -0.76400
O655        O  0.93272226  0.46430859  0.82623770    -0.76600
C656        C  0.92692311  0.42923085  0.83878129     1.04000
Cr657      Cr  0.98978202  0.43763035  0.76037668     1.93700
Cr658      Cr  0.55271056  0.04620513  0.76729512     1.93200
Cr659      Cr  0.94752095  0.48877479  0.75223071     1.39100
O660        O  0.99804255  0.00390351  0.76559148    -1.21700
C661        C  0.57372064  0.98296579  0.63683143    -0.15000
C662        C  0.60707406  0.01454079  0.61552153    -0.30200
H663        H  0.56247668  0.46122465  0.60837113     0.14000
H664        H  0.61989372  0.04484690  0.63609291     0.14600
C665        C  0.57402540  0.98018075  0.89075223    -0.15000
C666        C  0.61329636  0.00515312  0.90303356    -0.30200
H667        H  0.55469584  0.95769502  0.92098708     0.14000
H668        H  0.60801417  0.47618824  0.87152410     0.14600
C669        C  0.02641210  0.10928472  0.88992360    -0.15000
C670        C  0.99722578  0.10964970  0.91989739    -0.30200
H671        H  0.54800339  0.10237105  0.93497487     0.14000
H672        H  0.96597214  0.09147977  0.90656442     0.14600
C673        C  0.99852595  0.11186753  0.61924311    -0.15000
C674        C  0.02495459  0.09997709  0.63342141    -0.30200
H675        H  0.97402088  0.10564883  0.64713131     0.14000
H676        H  0.55471526  0.13729019  0.64327345     0.14600
C677        C  0.88677415  0.37220829  0.90603393    -0.15000
C678        C  0.90728713  0.41251158  0.89264780    -0.30200
H679        H  0.88165970  0.34839906  0.87513090     0.14000
H680        H  0.90868921  0.43535047  0.92271585     0.14600
C681        C  0.87225157  0.38508027  0.60897185    -0.15000
C682        C  0.90609521  0.38878165  0.62999116    -0.30200
H683        H  0.85748273  0.39947523  0.63073244     0.14000
H684        H  0.92031849  0.37408797  0.60746615     0.14600
C685        C  0.60811118  0.25042005  0.50738578    -0.15000
C686        C  0.56938973  0.23390976  0.49250552    -0.30200
H687        H  0.61885715  0.23083449  0.52433915     0.14000
H688        H  0.55822903  0.25765835  0.99223837     0.14600
C689        C  0.66553696  0.43623839  0.49982762    -0.15000
C690        C  0.64331792  0.39677070  0.51622830    -0.30200
H691        H  0.69127041  0.44468090  0.47341812     0.14000
H692        H  0.61584157  0.38406107  0.03943430     0.14600
C693        C  0.74721497  0.35951856  0.48102864    -0.15000
C694        C  0.75997583  0.33249699  0.46932342    -0.30200
H695        H  0.76883979  0.39100492  0.49466397     0.14000
H696        H  0.74105266  0.29787971  0.96871999     0.14600
C697        C  0.72536443  0.09094108  0.49585407    -0.15000
C698        C  0.75601519  0.09083157  0.46999098    -0.30200
H699        H  0.73005503  0.11974321  0.51495650     0.14000
H700        H  0.75895859  0.05918915  0.98039440     0.14600
C701        C  0.84726667  0.24169994  0.50297223    -0.15000
C702        C  0.82240880  0.25522467  0.48646100    -0.30200
H703        H  0.87982945  0.26213040  0.04607868     0.14000
H704        H  0.79673887  0.23565660  0.45967260     0.14600
C705        C  0.89807107  0.14445868  0.49991137    -0.15000
C706        C  0.93713711  0.17236051  0.49461501    -0.30200
H707        H  0.88927158  0.11319651  0.51274574     0.14000
H708        H  0.94983250  0.19959401  0.00401536     0.14600
C709        C  0.87027156  0.66061705  0.51270485     0.81700
N710        N  0.88146213  0.70146334  0.50721530    -0.76600
C711        C  0.85299604  0.71303297  0.50440970     0.84100
N712        N  0.80354277  0.67842169  0.00785739    -0.76600
C713        C  0.79119758  0.63749425  0.01104813     0.84200
N714        N  0.81899394  0.62511747  0.01486912    -0.78300
C715        C  0.65715855  0.87074862  0.99585245     0.81700
N716        N  0.69645324  0.88138810  0.99265947    -0.76600
C717        C  0.70677713  0.85155648  0.98827898     0.84100
N718        N  0.67780323  0.81103527  0.98854522    -0.76600
C719        C  0.63859483  0.79994724  0.99185114     0.84200
N720        N  0.62822687  0.82988041  0.99604162    -0.78300
C721        C  0.86051138  0.87155993  0.05990767     0.87900
C722        C  0.81829550  0.86415549  0.04970885    -0.52300
C723        C  0.80169187  0.84452115  0.00008426     0.10900
C724        C  0.83018493  0.83678744  0.47570250     0.21800
C725        C  0.85652822  0.82849780  0.05443970    -0.53000
C726        C  0.84009936  0.80845662  0.00498067     0.11000
C727        C  0.88435109  0.89525692  0.00899417    -0.52600
C728        C  0.86826015  0.88012758  0.47143159     0.11500
H729        H  0.80285780  0.87361766  0.07912032     0.16000
H730        H  0.81577450  0.82248160  0.43494956     0.01800
H731        H  0.86515680  0.81480398  0.08739611     0.16300
H732        H  0.91233656  0.92475061  0.01180830     0.16100
C733        C  0.00122240  0.62776995  0.05042594     0.87900
C734        C  0.54579656  0.67984007  0.05617569    -0.52300
C735        C  0.54095540  0.69657268  0.00855581     0.10900
C736        C  0.00190699  0.66704717  0.46532869     0.21800
C737        C  0.96407654  0.63332656  0.05387994    -0.53000
C738        C  0.95824936  0.65090335  0.00762436     0.11000
C739        C  0.99490282  0.60247812  0.99651827    -0.52600
C740        C  0.00064764  0.62576959  0.45124130     0.11500
H741        H  0.57187113  0.69620907  0.08355008     0.16000
H742        H  0.49455998  0.69072843  0.42571734     0.01800
H743        H  0.94512028  0.62542201  0.09021356     0.17700
H744        H  0.99518026  0.57345355  0.99533711     0.16100
C745        C  0.62513146  0.50288121  0.06185183     0.87900
C746        C  0.63734567  0.97225000  0.05745148    -0.52300
C747        C  0.65993843  0.97523253  0.01202395     0.10900
C748        C  0.66698923  0.01141930  0.47536803     0.21800
C749        C  0.66716458  0.54071099  0.05482436    -0.53000
C750        C  0.68671994  0.53876708  0.00838929     0.11000
C751        C  0.60582356  0.00387748  0.00563317    -0.52600
C752        C  0.62464114  0.00446727  0.46323726     0.11500
H753        H  0.62846827  0.94768561  0.08711625     0.16000
H754        H  0.68325007  0.01133940  0.43732264     0.01800
H755        H  0.68097962  0.56556815  0.08593615     0.16300
H756        H  0.57619392  0.00068198  0.00250777     0.16100
O757        O  0.96969142  0.92533287  0.18958523    -0.83900
O758        O  0.53958908  0.95040433  0.22349516    -0.81000
C759        C  0.56348761  0.48910403  0.19683532     0.99600
O760        O  0.55917632  0.52049467  0.19569249    -0.81000
O761        O  0.52625779  0.57145998  0.21288569    -0.83600
C762        C  0.49427707  0.55724012  0.18337751     1.04100
O763        O  0.96330252  0.51657192  0.18004436    -0.76400
O764        O  0.92141752  0.93800890  0.21387153    -0.76600
C765        C  0.93644306  0.92290924  0.17988904     1.04000
O766        O  0.93909960  0.90496404  0.29895003    -0.83900
O767        O  0.51322086  0.94536382  0.33593591    -0.81000
C768        C  0.55815790  0.49461971  0.35398826     0.99600
O769        O  0.57431986  0.52101112  0.31559234    -0.81000
O770        O  0.53588452  0.56405130  0.33155801    -0.83600
C771        C  0.50635783  0.56886619  0.34032649     1.04000
O772        O  0.98065668  0.55006889  0.29531632    -0.76400
O773        O  0.93265293  0.95534459  0.33444746    -0.76600
C774        C  0.92401378  0.91801075  0.33481023     1.04000
Cr775      Cr  0.99341141  0.93785992  0.26381811     1.93700
Cr776      Cr  0.54557105  0.54111230  0.26370619     1.93200
Cr777      Cr  0.95049334  0.98816263  0.26597075     1.39100
O778        O  0.00309721  0.49374510  0.25201655    -1.21700
C779        C  0.58686808  0.48214041  0.15336655    -0.15000
C780        C  0.60370666  0.50858613  0.11127126    -0.30200
H781        H  0.58497971  0.94838582  0.14427047     0.14000
H782        H  0.60069385  0.53609214  0.11041575     0.14600
C783        C  0.57869285  0.49741166  0.40708513    -0.15000
C784        C  0.61857876  0.51512030  0.41509969    -0.30200
H785        H  0.55891435  0.48110821  0.44129104     0.14000
H786        H  0.62825958  0.01953879  0.37361968     0.14600
C787        C  0.01712531  0.59052388  0.37736406    -0.15000
C788        C  0.99529893  0.60777079  0.39367223    -0.30200
H789        H  0.52747844  0.59205261  0.42434993     0.14000
H790        H  0.97430346  0.60940054  0.36500149     0.14600
C791        C  0.00980792  0.60957790  0.10142686    -0.15000
C792        C  0.98419249  0.57102615  0.11815751    -0.30200
H793        H  0.03803057  0.62793978  0.12406815     0.14000
H794        H  0.46195137  0.56317876  0.11198368     0.14600
C795        C  0.88501500  0.90390821  0.42036591    -0.15000
C796        C  0.89706104  0.88953359  0.37750373    -0.30200
H797        H  0.89428103  0.93668813  0.42271174     0.14000
H798        H  0.89037554  0.85749961  0.37680221     0.14600
C799        C  0.87889211  0.89351225  0.11427866    -0.15000
C800        C  0.91559334  0.90117130  0.12852034    -0.30200
H801        H  0.86240094  0.90303040  0.14166285     0.14000
H802        H  0.93137181  0.89102151  0.10064841     0.14600
C803        C  0.60908327  0.75581449  0.99928298    -0.15000
C804        C  0.56944569  0.73951717  0.99176241    -0.30200
H805        H  0.62057998  0.73599675  0.01288266     0.14000
H806        H  0.55582897  0.76298180  0.47164185     0.14600
C807        C  0.67152529  0.94372508  0.99795223    -0.15000
C808        C  0.64592521  0.90291567  0.00524074    -0.30200
H809        H  0.70084086  0.95416437  0.97993050     0.14000
H810        H  0.61557907  0.89488574  0.52898174     0.14600
C811        C  0.74918555  0.86302187  0.99215816    -0.15000
C812        C  0.76143813  0.83550627  0.98198256    -0.30200
H813        H  0.77047377  0.89400990  0.00794456     0.14000
H814        H  0.74173578  0.80545397  0.47789520     0.14600
C815        C  0.72994328  0.56832218  0.99834065    -0.15000
C816        C  0.74778887  0.60804115  0.01613225    -0.30200
H817        H  0.74725668  0.55707201  0.97607514     0.14000
H818        H  0.74149118  0.62556702  0.54096077     0.14600
C819        C  0.85588571  0.75175923  0.00910959    -0.15000
C820        C  0.83132700  0.76563141  0.99236826    -0.30200
H821        H  0.89393963  0.77969306  0.52187606     0.14000
H822        H  0.80344245  0.74485967  0.97032532     0.14600
C823        C  0.88922838  0.64029572  0.02079785    -0.15000
C824        C  0.92703644  0.66316618  0.00218787    -0.30200
H825        H  0.87989471  0.61049485  0.03943363     0.14000
H826        H  0.94720510  0.69751113  0.47819963     0.14600
C827        C  0.85901121  0.65374677  0.01444213     0.81700
N828        N  0.87090869  0.69482697  0.01110132    -0.76600
C829        C  0.84320585  0.70720494  0.00726145     0.84100
N830        N  0.81368447  0.68383272  0.50864967    -0.76600
C831        C  0.80230987  0.64334418  0.51411352     0.84200
N832        N  0.83062193  0.63176577  0.51650811    -0.78300
C833        C  0.65626135  0.87113270  0.50827289     0.81700
N834        N  0.69516069  0.87990074  0.51021758    -0.76600
C835        C  0.70406132  0.84876787  0.50870328     0.84100
N836        N  0.67355964  0.80854367  0.50649127    -0.76600
C837        C  0.63451472  0.79935912  0.50449773     0.84200
N838        N  0.62614113  0.83080117  0.50588152    -0.78300
C839        C  0.86420919  0.87072546  0.57123647     0.87900
C840        C  0.82083211  0.86188648  0.56591427    -0.52300
C841        C  0.80272989  0.84425970  0.51575851     0.10900
C842        C  0.82875275  0.83324808  0.96568085     0.21800
C843        C  0.86190508  0.82915775  0.55902007    -0.53000
C844        C  0.84452470  0.81127112  0.50899674     0.11000
C845        C  0.88584844  0.89747240  0.52142564    -0.52600
C846        C  0.86790436  0.87503182  0.95963792     0.11500
H847        H  0.80585337  0.86895471  0.59894443     0.16000
H848        H  0.81512755  0.81699830  0.92546317     0.01800
H849        H  0.87259928  0.81472323  0.58811096     0.16300
H850        H  0.91278812  0.92783712  0.52532256     0.16100
C851        C  0.00843918  0.62960664  0.55243156     0.87900
C852        C  0.52795268  0.67892160  0.55183917    -0.52300
C853        C  0.52996427  0.69925444  0.50401078     0.10900
C854        C  0.98988888  0.66095909  0.96229997     0.21800
C855        C  0.97168757  0.63592818  0.55351853    -0.53000
C856        C  0.96844644  0.65578234  0.50785462     0.11000
C857        C  0.00436464  0.60649296  0.49712445    -0.52600
C858        C  0.98879052  0.61958855  0.95009138     0.11500
H859        H  0.55075075  0.69226285  0.58454403     0.16000
H860        H  0.49719654  0.68205463  0.93890386     0.01800
H861        H  0.95120738  0.62699944  0.58823509     0.17700
H862        H  0.00378243  0.57704541  0.49468802     0.16100
C863        C  0.63749882  0.51164302  0.57205014     0.87900
C864        C  0.63955390  0.97740912  0.56358736    -0.52300
C865        C  0.65957629  0.97690639  0.51670885     0.10900
C866        C  0.67002705  0.01280144  0.97536074     0.21800
C867        C  0.68148941  0.54609523  0.56789244    -0.53000
C868        C  0.69952139  0.54450036  0.51978737     0.11000
C869        C  0.60423417  0.00431202  0.51000253    -0.52600
C870        C  0.62836710  0.00680923  0.96034737     0.11500
H871        H  0.63203846  0.95540052  0.59679515     0.16000
H872        H  0.68851474  0.01548008  0.93856896     0.01800
H873        H  0.69728165  0.56908854  0.60078996     0.16300
H874        H  0.57456301  0.00110087  0.50876561     0.16100
O875        O  0.93250068  0.93072313  0.72115682    -0.83900
O876        O  0.53200907  0.96111948  0.71661549    -0.81000
C877        C  0.55819152  0.49325774  0.68384638     0.99600
O878        O  0.57491032  0.52550694  0.71491116    -0.81000
O879        O  0.53859920  0.56837149  0.67853906    -0.83600
C880        C  0.51202113  0.57803903  0.67051669     1.04100
O881        O  0.95835028  0.51425512  0.67874344    -0.76400
O882        O  0.93683839  0.98885071  0.69479066    -0.76600
C883        C  0.92271622  0.95045444  0.68830010     1.04000
O884        O  0.95527694  0.94118057  0.83592590    -0.83900
O885        O  0.51674109  0.96052062  0.83529383    -0.81000
C886        C  0.56271830  0.51200828  0.84075223     0.99600
O887        O  0.56269177  0.54448681  0.82759820    -0.81000
O888        O  0.53487178  0.59438006  0.79154542    -0.83600
C889        C  0.50734174  0.58544909  0.82664654     1.04000
O890        O  0.97132219  0.54406602  0.79508263    -0.76400
O891        O  0.92166076  0.97216615  0.81202940    -0.76600
C892        C  0.92699224  0.94847970  0.84371274     1.04000
Cr893      Cr  0.98357335  0.95050438  0.76497445     1.93700
Cr894      Cr  0.54914314  0.55477203  0.75327031     1.93200
Cr895      Cr  0.96108161  0.01909589  0.76520300     1.39100
O896        O  0.99229288  0.48619012  0.75262175    -1.21700
C897        C  0.57957155  0.48755625  0.63658437    -0.15000
C898        C  0.61809084  0.51475199  0.62525933    -0.30200
H899        H  0.56114175  0.95178721  0.61926230     0.14000
H900        H  0.63539118  0.54089361  0.65365310     0.14600
C901        C  0.58304078  0.51363700  0.89365637    -0.15000
C902        C  0.60352663  0.49389819  0.90417623    -0.30200
H903        H  0.58276253  0.53466952  0.92532905     0.14000
H904        H  0.63374719  0.02633422  0.87256157     0.14600
C905        C  0.00581652  0.58360116  0.87859630    -0.15000
C906        C  0.98327413  0.60033267  0.89343030    -0.30200
H907        H  0.54040706  0.64541369  0.87368831     0.14000
H908        H  0.96184483  0.60072907  0.86432910     0.14600
C909        C  0.01362957  0.60878217  0.60356032    -0.15000
C910        C  0.98542218  0.57055172  0.61868254    -0.30200
H911        H  0.04108798  0.62530372  0.62834183     0.14000
H912        H  0.53998644  0.61074684  0.59328349     0.14600
C913        C  0.88813788  0.89086612  0.90629807    -0.15000
C914        C  0.90025388  0.92984298  0.89111131    -0.30200
H915        H  0.89434454  0.87066286  0.88025296     0.14000
H916        H  0.89115094  0.94877399  0.91489961     0.14600
C917        C  0.88500156  0.88994913  0.62596176    -0.15000
C918        C  0.89502856  0.92880879  0.64121575    -0.30200
H919        H  0.89513863  0.87295194  0.65125700     0.14000
H920        H  0.88583690  0.94632011  0.61532992     0.14600
C921        C  0.60171326  0.75546957  0.50820373    -0.15000
C922        C  0.56325583  0.74213298  0.49282674    -0.30200
H923        H  0.60941930  0.73347713  0.52522477     0.14000
H924        H  0.55759548  0.75789091  0.97402314     0.14600
C925        C  0.67132907  0.94488110  0.50570559    -0.15000
C926        C  0.64585063  0.90435510  0.51534636    -0.30200
H927        H  0.70045933  0.95456095  0.48754878     0.14000
H928        H  0.61557076  0.89265430  0.01921936     0.14600
C929        C  0.74650533  0.85914671  0.51669337    -0.15000
C930        C  0.76074683  0.83382666  0.50162485    -0.30200
H931        H  0.76696153  0.88908008  0.53614113     0.14000
H932        H  0.74134200  0.80546258  0.96258468     0.14600
C933        C  0.74236167  0.57334949  0.50828295    -0.15000
C934        C  0.75967018  0.61354994  0.52314826    -0.30200
H935        H  0.75925167  0.56176409  0.48563316     0.14000
H936        H  0.72965034  0.62010619  0.03388401     0.14600
C937        C  0.86445313  0.75734917  0.50510929    -0.15000
C938        C  0.83804884  0.76986100  0.49157640    -0.30200
H939        H  0.88515949  0.77333423  0.02722024     0.14000
H940        H  0.80969617  0.74836667  0.47112769     0.14600
C941        C  0.90041433  0.64718586  0.51923461    -0.15000
C942        C  0.93829733  0.66936858  0.50109906    -0.30200
H943        H  0.89063021  0.61732293  0.53798837     0.14000
H944        H  0.93512785  0.69110537  0.97924428     0.14600
loop_ 
_geom_bond_atom_site_label_1 
_geom_bond_atom_site_label_2 
_geom_bond_distance 
_geom_bond_site_symmetry_2 
_ccdc_geom_bond_type 
C1            N2   1.354       .  A
C1          N124   1.352       .  A
C1          C233   1.461       .  S
N2            C3   1.353       .  A
C3          N122   1.362       .  A
C3          C229   1.471       .  S
N4            C5   1.357       .  A
N4          C121   1.357       .  A
C5            N6   1.364       .  A
C5          C108   1.480       .  S
N6          C119   1.364       .  A
C7            N8   1.359       .  A
C7           N12   1.354       .  A
C7          C100   1.474       .  S
N8            C9   1.359       .  A
C9           N10   1.361       .  A
C9          C103   1.475       .  S
N10          C11   1.359       .  A
C11          N12   1.357       .  A
C11          C95   1.472   1_556  S
C13          C14   1.526       .  S
C13          C19   1.533       .  S
C13          C17   1.536       .  S
C13          C91   1.510       .  S
C14          H21   1.086       .  S
C14          C15   1.367   1_554  D
C15         C134   1.545       .  S
C15         C104   1.482       .  S
C16          C20   1.541       .  S
C16         C133   1.540       .  S
C16         C136   1.534       .  S
C16          H22   1.111       .  S
C17          H23   1.086       .  S
C17          C18   1.365       .  D
C18         C134   1.546   1_554  S
C18         C112   1.488   1_554  S
C19          H24   1.087       .  S
C19         C138   1.363   1_554  D
C20         C137   1.368       .  D
C20          C87   1.486       .  S
C25          C31   1.534       .  S
C25          C29   1.549       .  S
C25          C83   1.518       .  S
C25         C498   1.530       .  S
C26         C497   1.534       .  S
C26          H33   1.086       .  S
C26          C27   1.368       .  D
C27         C618   1.535   1_554  S
C27          C96   1.475       .  S
C28          C32   1.538       .  S
C28         C617   1.538       .  S
C28         C148   1.525       .  S
C28         H506   1.111       .  S
C29          H35   1.086       .  S
C29          C30   1.374       .  D
C30         C146   1.539   1_554  S
C30         C116   1.494       .  S
C31          H36   1.086       .  S
C31         C150   1.367   1_554  D
C32         C149   1.368       .  D
C32          C80   1.484       .  S
H34         C500   1.111       .  S
C37          C41   1.537       .  S
C37          C72   1.517       .  S
C37         C274   1.546   1_545  S
C37         C279   1.526       .  S
C38         C273   1.544       .  S
C38          H45   1.083       .  S
C38          C39   1.372   1_554  D
C39         C158   1.536       .  S
C39          C99   1.480       .  S
C40          C44   1.546       .  S
C40         C157   1.541       .  S
C40         C396   1.541       .  S
C40          H46   1.111       .  S
C41          H47   1.086       .  S
C41          C42   1.368       .  D
C42         C394   1.538   1_554  S
C42         C107   1.488       .  S
C43         C273   1.521   1_556  S
C43          H48   1.087       .  S
C43         C162   1.364       .  D
C44         C161   1.358       .  D
C44         C312   1.473       .  S
O49         Cr67   1.943       .  S
O49          C57   1.255       .  A
O50        Cr539   2.015       .  S
O50         C287   1.267       .  A
C51          C71   1.479       .  S
C51          O52   1.258   1_565  A
C51         O286   1.261       .  A
O52         Cr68   1.979       .  S
O53         Cr68   2.028       .  S
O53          C54   1.270   1_455  A
C54         C556   1.476       .  S
C54         O527   1.253       .  A
O55        Cr305   1.945   1_545  S
O55         C526   1.249       .  A
O56         Cr69   2.032       .  S
O56          C57   1.275       .  A
C57          C92   1.467       .  S
O58         Cr67   2.028       .  S
O58          C66   1.265       .  A
O59        Cr539   1.972       .  S
O59         C296   1.263       .  A
C60          C75   1.464       .  S
C60          O61   1.275   1_565  A
C60         O295   1.258       .  A
O61         Cr68   2.029       .  S
O62         Cr68   1.955       .  S
O62          C63   1.254       .  A
C63         C551   1.475       .  S
C63         O536   1.271   1_455  A
O64        Cr305   2.036   1_545  S
O64         C535   1.271       .  A
O65         Cr69   1.963       .  S
O65          C66   1.252       .  A
C66          C88   1.474       .  S
Cr67        O522   2.021       .  S
Cr67        O531   1.952       .  S
Cr67        O306   1.771       .  S
Cr68        O542   1.770   1_445  S
Cr69        O291   1.951       .  S
Cr69        O300   2.030       .  S
Cr69        O306   1.769       .  S
O70        Cr303   1.769       .  S
O70        Cr540   1.762   1_565  S
O70        Cr305   1.766       .  S
C71         H309   1.082       .  S
C71          C72   1.344   1_565  D
C72          H74   1.088       .  S
H73         C307   1.083       .  S
C75          H77   1.088       .  S
C75          C76   1.337   1_565  D
C76         H314   1.086       .  S
C76         C280   1.475       .  S
H78         C312   1.087       .  S
C79         C535   1.463       .  S
C79         H553   1.087       .  S
C79          C80   1.338       .  D
C80          H82   1.086       .  S
H81         C551   1.088       .  S
C83          H85   1.087       .  S
C83          C84   1.336       .  D
C84         C526   1.476       .  S
C84         H558   1.088       .  S
H86         C556   1.088       .  S
C87          H89   1.086       .  S
C87          C88   1.342       .  D
C88          H90   1.088       .  S
C91          H93   1.087       .  S
C91          C92   1.337       .  D
C92          H94   1.088       .  S
C95          H97   1.086       .  S
C95          C96   1.343       .  D
C96         H216   1.086   1_554  S
H98         C214   1.086       .  S
C99         H101   1.086       .  S
C99         C100   1.341       .  D
C100        H220   1.086   1_556  S
H102        C218   1.087       .  S
C103        H105   1.087       .  S
C103        C104   1.345       .  D
C104        H224   1.086       .  S
H106        C222   1.086       .  S
C107        H109   1.086   1_554  S
C107        C108   1.344       .  D
C108        H228   1.087       .  S
H110        C226   1.086       .  S
C111        C121   1.482       .  S
C111        H231   1.086       .  S
C111        C112   1.351   1_554  D
C112        H114   1.086       .  S
H113        C229   1.087       .  S
C115        C119   1.492       .  S
C115        H117   1.086       .  S
C115        C116   1.348       .  D
C116        H236   1.086       .  S
H118        C234   1.086       .  S
C119        N120   1.365       .  A
N120        C121   1.362       .  A
N122        C123   1.364       .  A
C123        N124   1.354       .  A
C123        C226   1.470       .  S
C125        N126   1.361       .  A
C125        N130   1.358       .  A
C125        C218   1.475       .  S
N126        C127   1.360       .  A
C127        N128   1.360       .  A
C127        C221   1.478       .  S
N128        C129   1.357       .  A
C129        N130   1.358       .  A
C129        C213   1.476       .  S
C131        C132   1.537       .  S
C131        C137   1.533       .  S
C131        C135   1.534       .  S
C131        C209   1.517       .  S
C132        H139   1.086       .  S
C132        C133   1.370       .  D
C133        C222   1.483       .  S
C134        C138   1.548       .  S
C134        H140   1.111       .  S
C135        H141   1.086       .  S
C135        C136   1.369       .  D
C136        C230   1.480       .  S
C137        H142   1.086       .  S
C138        C205   1.480       .  S
C143        C616   1.541       .  S
C143        C149   1.525       .  S
C143        C147   1.531       .  S
C143        C201   1.510       .  S
C144        C615   1.533       .  S
C144        H151   1.086       .  S
C144        C145   1.369       .  D
C145        C500   1.542       .  S
C145        C214   1.482       .  S
C146        C499   1.532   1_556  S
C146        C150   1.536       .  S
C146        H624   1.112       .  S
C147        H153   1.087       .  S
C147        C148   1.364       .  D
C148        C234   1.463       .  S
C149        H154   1.086       .  S
C150        C198   1.479       .  S
H152        C618   1.112       .  S
C155        C392   1.530   1_545  S
C155        C397   1.531       .  S
C155        C159   1.530       .  S
C155        C190   1.502       .  S
C156        C391   1.536       .  S
C156        H163   1.086       .  S
C156        C157   1.369       .  D
C157        C217   1.482       .  S
C158        C162   1.542       .  S
C158        C278   1.535       .  S
C158        H164   1.111       .  S
C159        H165   1.087       .  S
C159        C160   1.358       .  D
C160        C276   1.542       .  S
C160        C225   1.477       .  S
C161        C391   1.525       .  S
C161        H166   1.087       .  S
C162        C430   1.485       .  S
O167       Cr185   2.031       .  S
O167        C175   1.272       .  A
O168       Cr657   2.020   1_455  S
O168        C405   1.268       .  A
C169        C189   1.473       .  S
C169        O404   1.257       .  A
C169        O170   1.263   1_565  A
O170       Cr186   1.993       .  S
O171       Cr186   1.971       .  S
O171        C172   1.256       .  A
C172        C674   1.476       .  S
C172        O645   1.268   1_455  A
O173       Cr423   1.967       .  S
O173        C644   1.260       .  A
O174       Cr187   1.962       .  S
O174        C175   1.257       .  A
C175        C210   1.477       .  S
O176       Cr185   1.979       .  S
O176        C184   1.260       .  A
O177       Cr657   1.948   1_455  S
O177        C414   1.254       .  A
C178        C193   1.469       .  S
C178        O413   1.269       .  A
C178        O179   1.260   1_565  A
O179       Cr186   1.964       .  S
O180       Cr186   2.013       .  S
O180        C181   1.265       .  A
C181        C669   1.472       .  S
C181        O654   1.257   1_455  A
O182       Cr423   2.005       .  S
O182        C653   1.264       .  A
O183       Cr187   2.019       .  S
O183        C184   1.267       .  A
C184        C206   1.484       .  S
Cr185       O640   1.970       .  S
Cr185       O649   2.044       .  S
Cr185       O424   1.776       .  S
Cr186       O660   1.776   1_455  S
Cr187       O409   2.020       .  S
Cr187       O418   1.969       .  S
Cr187       O424   1.769       .  S
O188       Cr421   1.772   1_545  S
O188       Cr658   1.775       .  S
O188       Cr423   1.772       .  S
C189        H427   1.087       .  S
C189        C190   1.342   1_565  D
C190        H192   1.087       .  S
H191        C425   1.086       .  S
C193        H195   1.087       .  S
C193        C194   1.344   1_565  D
C194        H432   1.086       .  S
C194        C398   1.475       .  S
H196        C430   1.085       .  S
C197        C653   1.471       .  S
C197        H671   1.087       .  S
C197        C198   1.345       .  D
C198        H200   1.086       .  S
H199        C669   1.087       .  S
C201        H203   1.087       .  S
C201        C202   1.344       .  D
C202        C644   1.477       .  S
C202        H676   1.083       .  S
H204        C674   1.087       .  S
C205        H207   1.086       .  S
C205        C206   1.345       .  D
C206        H208   1.087       .  S
C209        H211   1.087       .  S
C209        C210   1.342       .  D
C210        H212   1.087       .  S
C213        H215   1.087       .  S
C213        C214   1.344       .  D
C217        H219   1.086       .  S
C217        C218   1.343       .  D
C221        H223   1.086       .  S
C221        C222   1.345       .  D
C225        H227   1.088       .  S
C225        C226   1.336       .  D
C229        C230   1.339       .  D
C230        H232   1.086       .  S
C233        H235   1.088       .  S
C233        C234   1.337       .  D
C237        N238   1.356       .  A
C237        N360   1.361       .  A
C237        C469   1.475       .  S
N238        C239   1.353       .  A
C239        N358   1.360       .  A
C239        C465   1.470       .  S
N240        C357   1.353   1_556  A
N240        C241   1.350   1_556  A
C241        N242   1.360       .  A
C241        C344   1.466       .  S
N242        C355   1.362       .  A
C243        N244   1.357       .  A
C243        N248   1.359       .  A
C243        C336   1.476       .  S
N244        C245   1.355       .  A
C245        N246   1.359       .  A
C245        C339   1.473       .  S
N246        C247   1.360       .  A
C247        N248   1.361       .  A
C247        C331   1.475       .  S
C249        C250   1.525       .  S
C249        C255   1.533       .  S
C249        C253   1.533       .  S
C249        C327   1.505       .  S
C250        H257   1.086       .  S
C250        C251   1.369   1_554  D
C251        C370   1.543       .  S
C251        C340   1.480       .  S
C252        C369   1.535       .  S
C252        C256   1.538       .  S
C252        C372   1.531       .  S
C252        H258   1.111       .  S
C253        H259   1.087       .  S
C253        C254   1.361   1_554  D
C254        C370   1.539       .  S
C254        C348   1.479       .  S
C255        H260   1.086       .  S
C255        C374   1.368   1_554  D
C256        C373   1.357       .  D
C256        C323   1.462       .  S
C261        C734   1.534       .  S
C261        C267   1.531       .  S
C261        C265   1.548       .  S
C261        C319   1.524       .  S
C262        C733   1.530       .  S
C262        H269   1.086       .  S
C262        C263   1.365   1_554  D
C263        C854   1.541   1_455  S
C263        C332   1.484       .  S
C264        C853   1.548       .  S
C264        C268   1.541       .  S
C264        C384   1.538       .  S
C264        H742   1.111       .  S
C265        H271   1.086       .  S
C265        C266   1.375       .  D
C266        C382   1.537   1_554  S
C266        C352   1.488       .  S
C267        H272   1.087       .  S
C267        C386   1.360   1_554  D
C268        C385   1.369       .  D
C268        C316   1.484       .  S
H270        C736   1.111   1_655  S
C273        C277   1.531       .  S
C273        C308   1.513       .  S
C274        H281   1.083       .  S
C274        C275   1.371       .  D
C275        C394   1.537   1_564  S
C275        C335   1.479   1_554  S
C276        C393   1.544   1_545  S
C276        C280   1.535       .  S
C276        H282   1.110       .  S
C277        H283   1.086       .  S
C277        C278   1.369   1_554  D
C278        C343   1.478       .  S
C279        H284   1.087       .  S
C279        C398   1.361   1_554  D
C280        C397   1.370       .  D
O285       Cr303   1.942       .  S
O285        C293   1.256       .  A
O286       Cr775   2.011   1_455  S
C287        C307   1.474       .  S
C287        O288   1.263       .  A
O288       Cr304   1.971       .  S
O289       Cr304   2.041       .  S
O289        C290   1.271   1_455  A
C290        C792   1.485       .  S
C290        O763   1.251       .  A
O291        C762   1.252       .  A
O292       Cr305   2.026       .  S
O292        C293   1.274       .  A
C293        C328   1.459       .  S
O294       Cr303   2.012       .  S
O294        C302   1.262       .  A
O295       Cr775   1.950   1_455  S
C296        C311   1.480       .  S
C296        O297   1.268       .  A
O297       Cr304   2.022       .  S
O298       Cr304   1.956       .  S
O298        C299   1.255       .  A
C299        C787   1.482       .  S
C299        O772   1.274   1_455  A
O300        C771   1.270       .  A
O301       Cr305   1.959       .  S
O301        C302   1.256       .  A
C302        C324   1.468       .  S
Cr303       O758   2.012       .  S
Cr303       O767   1.954       .  S
Cr304       O778   1.773       .  S
O306       Cr776   1.769       .  S
C307        C308   1.343       .  D
C308        H310   1.088       .  S
C311        H313   1.087       .  S
C311        C312   1.340       .  D
C315        C771   1.468       .  S
C315        H789   1.088       .  S
C315        C316   1.339       .  D
C316        H318   1.086       .  S
H317        C787   1.088       .  S
C319        H321   1.086       .  S
C319        C320   1.342       .  D
C320        C762   1.483       .  S
C320        H794   1.088       .  S
H322        C792   1.087       .  S
C323        H325   1.087       .  S
C323        C324   1.337       .  D
C324        H326   1.087       .  S
C327        H329   1.087       .  S
C327        C328   1.337       .  D
C328        H330   1.088       .  S
C331        H333   1.087       .  S
C331        C332   1.346       .  D
C332        H452   1.086       .  S
H334        C450   1.086       .  S
C335        H337   1.086       .  S
C335        C336   1.344       .  D
C336        H456   1.086   1_556  S
H338        C454   1.087       .  S
C339        H341   1.087   1_556  S
C339        C340   1.344       .  D
C340        H460   1.086       .  S
H342        C458   1.086       .  S
C343        H345   1.086       .  S
C343        C344   1.337   1_556  D
C344        H464   1.087       .  S
H346        C462   1.086       .  S
C347        C357   1.475       .  S
C347        H467   1.086       .  S
C347        C348   1.350   1_554  D
C348        H350   1.086       .  S
H349        C465   1.087       .  S
C351        C355   1.484       .  S
C351        H353   1.086       .  S
C351        C352   1.343       .  D
C352        H472   1.086   1_554  S
H354        C470   1.086       .  S
C355        N356   1.366       .  A
N356        C357   1.362       .  A
N358        C359   1.360       .  A
C359        N360   1.363       .  A
C359        C462   1.479       .  S
C361        N362   1.360       .  A
C361        N366   1.364       .  A
C361        C454   1.477       .  S
N362        C363   1.355       .  A
C363        N364   1.356       .  A
C363        C457   1.472       .  S
N364        C365   1.354       .  A
C365        N366   1.363       .  A
C365        C449   1.476       .  S
C367        C368   1.537       .  S
C367        C373   1.526       .  S
C367        C371   1.535       .  S
C367        C445   1.503       .  S
C368        H375   1.086       .  S
C368        C369   1.370       .  D
C369        C458   1.472       .  S
C370        C374   1.541       .  S
C370        H376   1.111       .  S
C371        H377   1.086       .  S
C371        C372   1.367       .  D
C372        C466   1.478       .  S
C373        H378   1.087       .  S
C374        C441   1.481       .  S
C379        C852   1.536       .  S
C379        C385   1.529       .  S
C379        C383   1.534       .  S
C379        C437   1.513       .  S
C380        C851   1.533       .  S
C380        H387   1.086       .  S
C380        C381   1.369       .  D
C381        C736   1.540       .  S
C381        C450   1.488       .  S
C382        C735   1.533   1_556  S
C382        C386   1.541       .  S
C382        H860   1.111       .  S
C383        H389   1.086       .  S
C383        C384   1.366       .  D
C384        C470   1.479       .  S
C385        H390   1.086       .  S
C386        C434   1.473       .  S
H388        C854   1.111       .  S
C391        C395   1.537       .  S
C391        C426   1.508       .  S
C392        H399   1.086       .  S
C392        C393   1.367       .  D
C393        C453   1.481       .  S
C394        C398   1.541       .  S
C394        H400   1.111       .  S
C395        H401   1.086       .  S
C395        C396   1.370       .  D
C396        C461   1.487       .  S
C397        H402   1.086       .  S
O403       Cr421   1.964       .  S
O403        C411   1.259       .  A
O404       Cr893   1.981   1_455  S
C405        C425   1.470       .  S
C405        O406   1.259       .  A
O406       Cr422   1.959       .  S
O407       Cr422   2.046       .  S
O407        C408   1.274   1_455  A
C408        C910   1.490       .  S
C408        O881   1.255       .  A
O409        C880   1.269       .  A
O410       Cr423   2.003   1_565  S
O410        C411   1.263       .  A
C411        C446   1.467       .  S
O412       Cr421   2.012       .  S
O412        C420   1.267       .  A
O413       Cr893   2.019   1_455  S
C414        C429   1.467       .  S
C414        O415   1.271       .  A
O415       Cr422   2.038       .  S
O416       Cr422   1.951       .  S
O416        C417   1.254       .  A
C417        C905   1.478       .  S
C417        O890   1.273   1_455  A
O418        C889   1.260       .  A
O419       Cr423   1.971   1_565  S
O419        C420   1.258       .  A
C420        C442   1.472       .  S
Cr421       O876   2.019       .  S
Cr421       O885   1.971       .  S
Cr422       O896   1.775   1_455  S
O424       Cr894   1.773       .  S
C425        C426   1.344       .  D
C426        H428   1.087       .  S
C429        H431   1.088       .  S
C429        C430   1.343       .  D
C433        C889   1.480       .  S
C433        H907   1.087       .  S
C433        C434   1.342       .  D
C434        H436   1.087       .  S
H435        C905   1.088       .  S
C437        H439   1.087       .  S
C437        C438   1.344       .  D
C438        C880   1.476       .  S
C438        H912   1.087       .  S
H440        C910   1.087       .  S
C441        H443   1.086       .  S
C441        C442   1.344       .  D
C442        H444   1.087       .  S
C445        H447   1.088       .  S
C445        C446   1.340       .  D
C446        H448   1.087       .  S
C449        H451   1.086       .  S
C449        C450   1.343       .  D
C453        H455   1.086       .  S
C453        C454   1.348       .  D
C457        H459   1.087       .  S
C457        C458   1.341       .  D
C461        H463   1.086       .  S
C461        C462   1.345       .  D
C465        C466   1.340       .  D
C466        H468   1.086       .  S
C469        H471   1.087       .  S
C469        C470   1.347       .  D
C473        N474   1.359       .  A
C473        N596   1.353       .  A
C473        C705   1.468       .  S
N474        C475   1.360       .  A
C475        N594   1.363       .  A
C475        C701   1.481       .  S
N476        C593   1.363       .  A
N476        C477   1.364       .  A
C477        N478   1.357       .  A
C477        C580   1.480   1_554  S
N478        C591   1.356       .  A
C479        N480   1.363       .  A
C479        N484   1.351       .  A
C479        C572   1.474       .  S
N480        C481   1.365   1_554  A
C481        N482   1.359       .  A
C481        C575   1.479       .  S
N482        C483   1.356   1_556  A
C483        N484   1.354       .  A
C483        C567   1.466       .  S
C485        C486   1.525       .  S
C485        C491   1.538       .  S
C485        C489   1.537       .  S
C485        C563   1.518       .  S
C486        H493   1.086       .  S
C486        C487   1.364       .  D
C487        C606   1.549   1_554  S
C487        C576   1.487   1_554  S
C488        C605   1.547       .  S
C488        C492   1.547       .  S
C488        C608   1.541       .  S
C488        H494   1.111       .  S
C489        H495   1.086       .  S
C489        C490   1.369       .  D
C490        C606   1.544   1_554  S
C490        C584   1.492       .  S
C491        H496   1.086       .  S
C491        C610   1.373   1_554  D
C492        C609   1.372       .  D
C492        C559   1.496       .  S
C497        C503   1.534       .  S
C497        C501   1.544   1_455  S
C497        C555   1.516       .  S
C498        H505   1.086       .  S
C498        C499   1.364       .  D
C499        C568   1.469       .  S
C500        C504   1.543   1_455  S
C500        C620   1.532   1_455  S
C501        H507   1.086       .  S
C501        C502   1.369       .  D
C502        C618   1.534   1_654  S
C502        C588   1.484       .  S
C503        H508   1.087       .  S
C503        C622   1.363   1_554  D
C504        C621   1.371       .  D
C504        C552   1.489       .  S
C509        C746   1.538   1_545  S
C509        C751   1.523       .  S
C509        C513   1.527       .  S
C509        C544   1.504       .  S
C510        C745   1.546       .  S
C510        H517   1.083       .  S
C510        C511   1.374       .  D
C511        C630   1.533   1_554  S
C511        C571   1.483       .  S
C512        C629   1.540       .  S
C512        C516   1.542       .  S
C512        C868   1.534       .  S
C512        H518   1.111       .  S
C513        H519   1.087       .  S
C513        C514   1.360       .  D
C514        C866   1.547   1_554  S
C514        C579   1.481       .  S
C515        C745   1.526       .  S
C515        H520   1.087       .  S
C515        C634   1.366   1_554  D
C516        C633   1.369       .  D
C516        C784   1.491       .  S
O521       Cr539   1.949   1_655  S
O521        C529   1.254       .  A
O522        C759   1.267       .  A
C523        C543   1.469       .  S
C523        O758   1.263       .  A
C523        O524   1.257   1_565  A
O524       Cr540   1.957       .  S
O525       Cr540   2.044       .  S
O525        C526   1.273       .  A
O527       Cr777   1.956   1_545  S
O528       Cr541   2.038       .  S
O528        C529   1.276       .  A
C529        C564   1.477       .  S
O530       Cr539   2.038   1_655  S
O530        C538   1.267       .  A
O531        C768   1.256       .  A
C532        C547   1.470       .  S
C532        O767   1.258       .  A
C532        O533   1.275   1_565  A
O533       Cr540   2.038       .  S
O534       Cr540   1.937       .  S
O534        C535   1.250       .  A
O536       Cr777   2.034   1_545  S
O537       Cr541   1.958       .  S
O537        C538   1.250       .  A
C538        C560   1.476       .  S
Cr539       O778   1.777       .  S
Cr541       O763   1.959       .  S
Cr541       O772   2.043       .  S
Cr541       O778   1.773   1_655  S
O542       Cr775   1.773       .  S
O542       Cr777   1.770       .  S
C543        H781   1.082       .  S
C543        C544   1.343   1_565  D
C544        H546   1.088       .  S
H545        C779   1.083       .  S
C547        H549   1.087       .  S
C547        C548   1.340   1_565  D
C548        H786   1.086       .  S
C548        C752   1.481       .  S
H550        C784   1.086       .  S
C551        C552   1.341   1_455  D
C552        H554   1.086       .  S
C555        H557   1.086       .  S
C555        C556   1.341   1_455  D
C559        H561   1.086       .  S
C559        C560   1.346       .  D
C560        H562   1.085       .  S
C563        H565   1.087       .  S
C563        C564   1.338       .  D
C564        H566   1.088       .  S
C567        H569   1.087       .  S
C567        C568   1.342       .  D
C568        H688   1.086   1_554  S
H570        C686   1.087       .  S
C571        H573   1.086   1_554  S
C571        C572   1.337       .  D
C572        H692   1.087       .  S
H574        C690   1.086       .  S
C575        H577   1.086   1_556  S
C575        C576   1.351       .  D
C576        H696   1.086       .  S
H578        C694   1.086       .  S
C579        H581   1.087       .  S
C579        C580   1.339   1_554  D
C580        H700   1.087       .  S
H582        C698   1.086       .  S
C583        C593   1.484       .  S
C583        H703   1.086       .  S
C583        C584   1.349       .  D
C584        H586   1.086   1_554  S
H585        C701   1.087       .  S
C587        C591   1.480       .  S
C587        H589   1.087       .  S
C587        C588   1.343       .  D
C588        H708   1.086       .  S
H590        C706   1.086       .  S
C591        N592   1.360       .  A
N592        C593   1.361       .  A
N594        C595   1.365       .  A
C595        N596   1.353       .  A
C595        C698   1.476       .  S
C597        N598   1.362       .  A
C597        N602   1.359       .  A
C597        C690   1.481       .  S
N598        C599   1.360       .  A
C599        N600   1.357       .  A
C599        C693   1.474       .  S
N600        C601   1.355       .  A
C601        N602   1.361       .  A
C601        C685   1.471       .  S
C603        C604   1.521       .  S
C603        C609   1.534       .  S
C603        C607   1.539       .  S
C603        C681   1.515       .  S
C604        H611   1.086       .  S
C604        C605   1.364       .  D
C605        C694   1.482       .  S
C606        C610   1.546       .  S
C606        H612   1.111       .  S
C607        H613   1.086       .  S
C607        C608   1.370       .  D
C608        C702   1.489       .  S
C609        H614   1.085       .  S
C610        C677   1.495       .  S
C615        C621   1.534   1_455  S
C615        C619   1.533   1_455  S
C615        C673   1.510   1_455  S
C616        H623   1.083       .  S
C616        C617   1.371       .  D
C617        C686   1.479       .  S
C618        C622   1.535       .  S
C619        H625   1.087       .  S
C619        C620   1.364       .  D
C620        C706   1.475       .  S
C621        H626   1.086       .  S
C622        C670   1.468   1_455  S
C627        C864   1.536   1_545  S
C627        C869   1.530       .  S
C627        C631   1.529       .  S
C627        C662   1.511       .  S
C628        C863   1.540       .  S
C628        H635   1.085       .  S
C628        C629   1.372       .  D
C629        C689   1.486       .  S
C630        C634   1.546       .  S
C630        C750   1.539   1_556  S
C630        H636   1.111       .  S
C631        H637   1.087       .  S
C631        C632   1.356       .  D
C632        C748   1.544       .  S
C632        C697   1.480       .  S
C633        C863   1.531       .  S
C633        H638   1.086       .  S
C634        C902   1.493       .  S
O639       Cr657   1.939       .  S
O639        C647   1.251       .  A
O640        C877   1.255       .  A
C641        C661   1.480       .  S
C641        O876   1.269       .  A
C641        O642   1.262   1_565  A
O642       Cr658   1.966       .  S
O643       Cr658   2.016       .  S
O643        C644   1.266       .  A
O645       Cr895   2.011       .  S
O646       Cr659   2.043       .  S
O646        C647   1.276       .  A
C647        C682   1.473       .  S
O648       Cr657   2.036       .  S
O648        C656   1.268       .  A
O649        C886   1.273       .  A
C650        C665   1.470       .  S
C650        O885   1.257       .  A
C650        O651   1.263   1_565  A
O651       Cr658   2.008       .  S
O652       Cr658   1.976       .  S
O652        C653   1.259       .  A
O654       Cr895   1.961       .  S
O655       Cr659   1.965       .  S
O655        C656   1.253       .  A
C656        C678   1.482       .  S
Cr657       O896   1.775       .  S
Cr659       O881   1.965       .  S
Cr659       O890   2.042       .  S
Cr659       O896   1.772       .  S
O660       Cr893   1.776   1_545  S
O660       Cr895   1.774       .  S
C661        H899   1.086       .  S
C661        C662   1.343   1_565  D
C662        H664   1.088       .  S
H663        C897   1.087       .  S
C665        H667   1.087       .  S
C665        C666   1.346   1_565  D
C666        H904   1.086       .  S
C666        C870   1.482       .  S
H668        C902   1.085       .  S
C669        C670   1.341   1_455  D
C670        H672   1.086       .  S
C673        H675   1.087       .  S
C673        C674   1.342   1_655  D
C677        H679   1.086       .  S
C677        C678   1.345       .  D
C678        H680   1.087       .  S
C681        H683   1.087       .  S
C681        C682   1.335       .  D
C682        H684   1.088       .  S
C685        H687   1.086       .  S
C685        C686   1.340       .  D
C689        H691   1.086       .  S
C689        C690   1.345       .  D
C693        H695   1.087       .  S
C693        C694   1.349       .  D
C697        H699   1.087       .  S
C697        C698   1.336       .  D
C701        C702   1.346       .  D
C702        H704   1.086       .  S
C705        H707   1.088       .  S
C705        C706   1.339       .  D
C709        N710   1.366       .  A
C709        N832   1.360       .  A
C709        C941   1.484       .  S
N710        C711   1.365       .  A
C711        N830   1.354       .  A
C711        C937   1.479       .  S
N712        C829   1.355       .  A
N712        C713   1.354       .  A
C713        N714   1.363       .  A
C713        C816   1.474       .  S
N714        C827   1.364       .  A
C715        N716   1.359       .  A
C715        N720   1.362       .  A
C715        C808   1.477   1_556  S
N716        C717   1.357       .  A
C717        N718   1.354       .  A
C717        C811   1.466       .  S
N718        C719   1.352       .  A
C719        N720   1.362       .  A
C719        C803   1.470       .  S
C721        C722   1.522       .  S
C721        C727   1.533       .  S
C721        C725   1.536       .  S
C721        C799   1.502       .  S
C722        H729   1.086       .  S
C722        C723   1.365       .  D
C723        C842   1.541   1_554  S
C723        C812   1.472   1_554  S
C724        C841   1.553       .  S
C724        C728   1.548       .  S
C724        C844   1.548       .  S
C724        H730   1.111       .  S
C725        H731   1.086       .  S
C725        C726   1.365       .  D
C726        C842   1.539   1_554  S
C726        C820   1.481   1_554  S
C727        H732   1.087       .  S
C727        C846   1.365   1_554  D
C728        C845   1.360       .  D
C728        C795   1.475       .  S
C733        C739   1.534   1_454  S
C733        C737   1.545   1_455  S
C733        C791   1.524       .  S
C734        H741   1.086       .  S
C734        C735   1.369       .  D
C735        C804   1.479   1_554  S
C736        C740   1.545       .  S
C736        C856   1.536   1_455  S
C737        H743   1.086       .  S
C737        C738   1.373       .  D
C738        C854   1.541   1_554  S
C738        C824   1.489       .  S
C739        H744   1.086       .  S
C739        C858   1.371       .  D
C740        C857   1.372       .  D
C740        C788   1.495   1_455  S
C745        C749   1.534       .  S
C745        C780   1.519       .  S
C746        H753   1.083       .  S
C746        C747   1.369       .  D
C747        C866   1.544   1_564  S
C747        C807   1.484   1_554  S
C748        C865   1.549   1_545  S
C748        C752   1.541       .  S
C748        H754   1.110       .  S
C749        H755   1.086       .  S
C749        C750   1.369       .  D
C750        C815   1.486   1_554  S
C751        H756   1.087       .  S
C751        C870   1.365   1_554  D
C752        C869   1.372       .  D
O757       Cr775   1.942       .  S
O757        C765   1.257       .  A
C759        C779   1.483       .  S
C759        O760   1.261       .  A
O760       Cr776   1.975       .  S
O761       Cr776   2.051       .  S
O761        C762   1.275       .  A
O764       Cr777   2.031       .  S
O764        C765   1.277       .  A
C765        C800   1.460       .  S
O766       Cr775   2.014       .  S
O766        C774   1.260       .  A
C768        C783   1.474       .  S
C768        O769   1.275       .  A
O769       Cr776   2.048       .  S
O770       Cr776   1.951       .  S
O770        C771   1.253       .  A
O773       Cr777   1.977       .  S
O773        C774   1.257       .  A
C774        C796   1.481       .  S
C779        C780   1.346       .  D
C780        H782   1.088       .  S
C783        H785   1.087       .  S
C783        C784   1.343       .  D
C787        C788   1.343   1_455  D
C788        H790   1.085       .  S
C791        H793   1.087       .  S
C791        C792   1.341   1_455  D
C795        H797   1.087       .  S
C795        C796   1.340       .  D
C796        H798   1.087       .  S
C799        H801   1.087       .  S
C799        C800   1.334       .  D
C800        H802   1.088       .  S
C803        H805   1.087   1_556  S
C803        C804   1.338       .  D
C804        H924   1.086       .  S
H806        C922   1.086       .  S
C807        H809   1.086       .  S
C807        C808   1.349   1_556  D
C808        H928   1.087       .  S
H810        C926   1.087       .  S
C811        H813   1.087   1_556  S
C811        C812   1.345       .  D
C812        H932   1.086       .  S
H814        C930   1.086       .  S
C815        H817   1.086       .  S
C815        C816   1.342   1_556  D
C816        H936   1.086       .  S
H818        C934   1.087       .  S
C819        C829   1.476       .  S
C819        H939   1.086       .  S
C819        C820   1.347   1_554  D
C820        H822   1.086       .  S
H821        C937   1.086       .  S
C823        C827   1.487       .  S
C823        H825   1.086       .  S
C823        C824   1.347       .  D
C824        H944   1.086   1_554  S
H826        C942   1.086       .  S
C827        N828   1.363       .  A
N828        C829   1.360       .  A
N830        C831   1.352       .  A
C831        N832   1.359       .  A
C831        C934   1.467       .  S
C833        N834   1.362       .  A
C833        N838   1.361       .  A
C833        C926   1.487       .  S
N834        C835   1.364       .  A
C835        N836   1.363       .  A
C835        C929   1.488       .  S
N836        C837   1.363       .  A
C837        N838   1.361       .  A
C837        C921   1.486       .  S
C839        C840   1.534       .  S
C839        C845   1.528       .  S
C839        C843   1.529       .  S
C839        C917   1.507       .  S
C840        H847   1.086       .  S
C840        C841   1.371       .  D
C841        C930   1.495       .  S
C842        C846   1.539       .  S
C842        H848   1.111       .  S
C843        H849   1.086       .  S
C843        C844   1.363       .  D
C844        C938   1.486       .  S
C845        H850   1.087       .  S
C846        C913   1.473       .  S
C851        C857   1.536       .  S
C851        C855   1.545   1_455  S
C851        C909   1.529       .  S
C852        H859   1.086       .  S
C852        C853   1.369       .  D
C853        C922   1.493       .  S
C854        C858   1.543       .  S
C855        H861   1.086       .  S
C855        C856   1.374       .  D
C856        C942   1.489       .  S
C857        H862   1.086       .  S
C858        C906   1.492       .  S
C863        C867   1.532       .  S
C863        C898   1.515       .  S
C864        H871   1.086       .  S
C864        C865   1.372       .  D
C865        C925   1.492       .  S
C866        C870   1.543       .  S
C866        H872   1.111       .  S
C867        H873   1.086       .  S
C867        C868   1.366       .  D
C868        C933   1.477       .  S
C869        H874   1.086       .  S
O875       Cr893   2.005       .  S
O875        C883   1.265       .  A
C877        C897   1.478       .  S
C877        O878   1.267       .  A
O878       Cr894   2.018       .  S
O879       Cr894   1.970       .  S
O879        C880   1.258       .  A
O882       Cr895   1.969   1_565  S
O882        C883   1.256       .  A
C883        C918   1.472       .  S
O884       Cr893   1.967       .  S
O884        C892   1.260       .  A
C886        C901   1.475       .  S
C886        O887   1.256       .  A
O887       Cr894   1.957       .  S
O888       Cr894   2.023       .  S
O888        C889   1.267       .  A
O891       Cr895   2.010   1_565  S
O891        C892   1.267       .  A
C892        C914   1.468       .  S
C897        C898   1.342       .  D
C898        H900   1.087       .  S
C901        H903   1.087       .  S
C901        C902   1.346       .  D
C905        C906   1.343   1_455  D
C906        H908   1.085       .  S
C909        H911   1.087       .  S
C909        C910   1.344   1_455  D
C913        H915   1.086       .  S
C913        C914   1.341       .  D
C914        H916   1.087       .  S
C917        H919   1.087       .  S
C917        C918   1.341       .  D
C918        H920   1.087       .  S
C921        H923   1.086       .  S
C921        C922   1.351       .  D
C925        H927   1.086       .  S
C925        C926   1.350       .  D
C929        H931   1.086       .  S
C929        C930   1.352       .  D
C933        H935   1.086       .  S
C933        C934   1.339       .  D
C937        C938   1.353       .  D
C938        H940   1.086       .  S
C941        H943   1.086       .  S
C941        C942   1.343       .  D
