geometry optimzed in LAMMPS
_audit_creation_date              2020-11-30 
_audit_creation_method            'lammps2cif' 
_symmetry_space_group_name_H-M    'P1' 
_symmetry_Int_Tables_number       1 
_symmetry_cell_setting            triclinic 
loop_ 
_symmetry_equiv_pos_as_xyz 
  x,y,z 
_cell_length_a                    20.4766548 
_cell_length_b                    20.590177093819392 
_cell_length_c                    30.88384850257008 
_cell_angle_alpha                 90.16607921325047 
_cell_angle_beta                  89.77225945138737 
_cell_angle_gamma                 88.99658733197471 
loop_ 
_atom_site_label 
_atom_site_type_symbol 
_atom_site_fract_x 
_atom_site_fract_y 
_atom_site_fract_z 
_atom_site_charge 
C1          C  0.50252161  0.28467406  0.34422099    -0.02600
C2          C  0.15155540  0.64141335  0.35199985    -0.02600
C3          C  0.85331920  0.62809797  0.34349344    -0.02600
C4          C  0.49290836  0.97887663  0.35296660    -0.02600
C5          C  0.50226611  0.28998441  0.02948315    -0.02600
C6          C  0.15103162  0.64634240  0.02777512    -0.02600
C7          C  0.85241966  0.64005341  0.03671492    -0.02600
C8          C  0.49551375  0.98966740  0.03124891    -0.02600
O9          O  0.05774083  0.68832616  0.38937568    -0.73000
O10         O  0.92968848  0.69087406  0.48780455    -0.74000
O11         O  0.06791151  0.69390435  0.48036784    -0.62600
O12         O  0.91947785  0.68556552  0.39599299    -0.71100
O13         O  0.93429104  0.57911576  0.39187343    -0.70600
O14         O  0.06486416  0.58783743  0.48959627    -0.61900
O15         O  0.92354530  0.58404886  0.48434692    -0.74400
O16         O  0.07361503  0.58354101  0.39866956    -0.73100
Cu17       Cu  0.99324709  0.69326611  0.43833872     1.04600
Cu18       Cu  0.99885044  0.57967062  0.44122030     1.04300
C19         C  0.09035893  0.63638785  0.38073949     0.93200
C20         C  0.90311296  0.63839599  0.50008994     0.92300
C21         C  0.09130612  0.64243866  0.49780703     0.84400
C22         C  0.90401601  0.63078710  0.37973668     0.90700
O23         O  0.44962293  0.20962050  0.39374281    -0.73000
O24         O  0.44673063  0.07220725  0.48468132    -0.74000
O25         O  0.44950150  0.20991087  0.48473770    -0.62600
O26         O  0.44585900  0.07046009  0.39367908    -0.71100
O27         O  0.55296032  0.05864344  0.39684704    -0.70600
O28         O  0.55718370  0.21333215  0.47984783    -0.61900
O29         O  0.55388560  0.07247285  0.48847623    -0.74400
O30         O  0.55648666  0.19970458  0.38819379    -0.73100
Cu31       Cu  0.44449571  0.14080465  0.43914401     1.04600
Cu32       Cu  0.55910747  0.13598981  0.43827642     1.04300
C33         C  0.50317875  0.22871995  0.37736420     0.93200
C34         C  0.49952335  0.04806443  0.50005210     0.92300
C35         C  0.50325421  0.23613912  0.49527684     0.84400
C36         C  0.49776818  0.03905454  0.38283360     0.90700
C37         C  0.80565296  0.70047428  0.03758709    -0.01400
C38         C  0.76132166  0.70600186  0.07251491    -0.09400
C39         C  0.71669874  0.75733155  0.07600920    -0.18200
C40         C  0.71470131  0.80718664  0.04491669     0.04200
C41         C  0.76105864  0.80428199  0.01065418     0.18300
C42         C  0.80402103  0.75039690  0.00628881    -0.19700
C43         C  0.76348836  0.85490607  0.98052521    -0.20900
C44         C  0.71746288  0.90544468  0.98176025    -0.19500
C45         C  0.66677723  0.90562366  0.01237687     0.19700
C46         C  0.66668325  0.85832654  0.04562818     0.01800
C47         C  0.61640349  0.86212848  0.07678735    -0.14200
C48         C  0.56540647  0.90710621  0.07290076    -0.11900
C49         C  0.56160997  0.95147847  0.03807120     0.01400
C50         C  0.61442432  0.95052072  0.00836948    -0.24100
H51         H  0.76123077  0.66996890  0.09790592     0.09400
H52         H  0.68458649  0.75639142  0.10368594     0.13000
H53         H  0.83437738  0.74808858  0.97777472     0.11700
H54         H  0.79991778  0.85435319  0.95496207     0.12900
H55         H  0.71925246  0.94250270  0.95695233     0.11900
H56         H  0.61319785  0.82918505  0.10369595     0.09000
H57         H  0.52610323  0.90392220  0.09624775     0.12300
H58         H  0.61409735  0.98053081  0.97998212     0.14100
C59         C  0.20029535  0.69925642  0.01142440    -0.01400
C60         C  0.18078471  0.76467717  0.00479640    -0.09400
C61         C  0.22649521  0.81377898  0.99868762    -0.18200
C62         C  0.29430302  0.79983173  0.99890741     0.04200
C63         C  0.31414300  0.73379281  0.00100238     0.18300
C64         C  0.26791461  0.68506784  0.00557944    -0.19700
C65         C  0.38055683  0.71631578  0.00004054    -0.20900
C66         C  0.42795487  0.76350785  0.99871118    -0.19500
C67         C  0.41014838  0.82935727  0.99941927     0.19700
C68         C  0.34326210  0.84861453  0.99876107     0.01800
C69         C  0.32857871  0.91569885  0.00034065    -0.14200
C70         C  0.37758804  0.96084785  0.00757310    -0.11900
C71         C  0.44377046  0.94145682  0.01276815     0.01400
C72         C  0.45916892  0.87561269  0.00364330    -0.24100
H73         H  0.13024125  0.77974828  0.00828296     0.09400
H74         H  0.20726888  0.86258810  0.99553276     0.13000
H75         H  0.28722715  0.63611213  0.00657524     0.11700
H76         H  0.39605499  0.66571895  0.00102491     0.12900
H77         H  0.47891693  0.74834025  0.99890677     0.11900
H78         H  0.27918397  0.93451978  0.99910447     0.09000
H79         H  0.36185347  0.01034788  0.01389349     0.12300
H80         H  0.50922660  0.85817500  0.00280463     0.14100
C81         C  0.44654230  0.34129207  0.02385539    -0.01400
C82         C  0.40506513  0.34606929  0.98767222    -0.09400
C83         C  0.35335804  0.39173590  0.98686505    -0.18200
C84         C  0.34123520  0.43416486  0.02227834     0.04200
C85         C  0.38440042  0.43030713  0.05799406     0.18300
C86         C  0.43734798  0.38697195  0.05743748    -0.19700
C87         C  0.37404811  0.46871963  0.09482334    -0.20900
C88         C  0.32115175  0.51124352  0.09710624    -0.19500
C89         C  0.27879922  0.51808501  0.06197943     0.19700
C90         C  0.28845891  0.48058757  0.02376760     0.01800
C91         C  0.24691742  0.49357711  0.98830968    -0.14200
C92         C  0.19954241  0.54341320  0.99029312    -0.11900
C93         C  0.18903187  0.58012662  0.02851048     0.01400
C94         C  0.22937244  0.56551541  0.06427416    -0.24100
H95         H  0.41233063  0.31537947  0.95959520     0.09400
H96         H  0.32283254  0.39187923  0.95856539     0.13000
H97         H  0.46976896  0.38569475  0.08510170     0.11700
H98         H  0.40669472  0.46530522  0.12230737     0.12900
H99         H  0.31431547  0.54024498  0.12619050     0.11900
H100        H  0.25272113  0.46882046  0.95772703     0.09000
H101        H  0.17420953  0.55580554  0.96071504     0.12300
H102        H  0.22709056  0.59577489  0.09299771     0.14100
C103        C  0.80547398  0.58135229  0.03328962    -0.01400
C104        C  0.77342171  0.56820125  0.99408239    -0.09400
C105        C  0.72641431  0.51952674  0.99098335    -0.18200
C106        C  0.70938115  0.48154620  0.02729724     0.04200
C107        C  0.73959713  0.49649389  0.06725725     0.18300
C108        C  0.78455538  0.54672944  0.07009632    -0.19700
C109        C  0.72371742  0.46239815  0.10484765    -0.20900
C110        C  0.67800281  0.41366395  0.10373167    -0.19500
C111        C  0.64688288  0.39770520  0.06499601     0.19700
C112        C  0.66212064  0.43089603  0.02611928     0.01800
C113        C  0.62766944  0.41326846  0.98844481    -0.14200
C114        C  0.58028236  0.36489025  0.98955057    -0.11900
C115        C  0.56478913  0.33188525  0.02801467     0.01400
C116        C  0.59837069  0.35055173  0.06578377    -0.24100
H117        H  0.78374081  0.59712838  0.96582305     0.09400
H118        H  0.70334387  0.51350031  0.96000348     0.13000
H119        H  0.80064390  0.56022310  0.10207071     0.11700
H120        H  0.74660495  0.47374627  0.13548686     0.12900
H121        H  0.66646261  0.38863858  0.13356951     0.11900
H122        H  0.63464068  0.43771352  0.95804028     0.09000
H123        H  0.55174608  0.35638683  0.96078221     0.12300
H124        H  0.58391739  0.33299366  0.09716627     0.14100
C125        C  0.47662728  0.00354122  0.30674730    -0.01400
C126        C  0.52041135  0.04543184  0.28603685    -0.09400
C127        C  0.51894589  0.05421580  0.24118493    -0.18200
C128        C  0.47002517  0.02617717  0.21546849     0.04200
C129        C  0.42117033  0.99030001  0.23697988     0.18300
C130        C  0.42551780  0.97820721  0.28154644    -0.19700
C131        C  0.37041801  0.96263585  0.21345034    -0.20900
C132        C  0.36955073  0.96623974  0.16862721    -0.19500
C133        C  0.41980769  0.99698418  0.14618996     0.19700
C134        C  0.46965127  0.02910166  0.16914447     0.01800
C135        C  0.51896913  0.05899826  0.14460061    -0.14200
C136        C  0.52068940  0.05417662  0.09939274    -0.11900
C137        C  0.47584008  0.01575040  0.07688201     0.01400
C138        C  0.42321565  0.99052952  0.10103159    -0.24100
H139        H  0.56056174  0.06576814  0.30399468     0.09400
H140        H  0.55870252  0.08050076  0.22735913     0.13000
H141        H  0.39104277  0.94480714  0.29507631     0.11700
H142        H  0.33237512  0.93590623  0.22970893     0.12900
H143        H  0.33089041  0.94209526  0.15131518     0.11900
H144        H  0.55913826  0.08319878  0.15958343     0.09000
H145        H  0.56196104  0.07432045  0.08235177     0.12300
H146        H  0.38795010  0.95924770  0.08645626     0.14100
C147        C  0.89394526  0.63890701  0.07849648    -0.01400
C148        C  0.91891106  0.58011782  0.09512044    -0.09400
C149        C  0.93177467  0.57467381  0.13930152    -0.18200
C150        C  0.92938541  0.63005109  0.16643880     0.04200
C151        C  0.92315553  0.69168122  0.14643855     0.18300
C152        C  0.90561733  0.69576572  0.10264948    -0.19700
C153        C  0.92858018  0.74843043  0.17112957    -0.20900
C154        C  0.93277304  0.74506959  0.21604594    -0.19500
C155        C  0.92862333  0.68510690  0.23705340     0.19700
C156        C  0.92907976  0.62661517  0.21251945     0.01800
C157        C  0.92319085  0.56754070  0.23510320    -0.14200
C158        C  0.90679214  0.56743638  0.27892926    -0.11900
C159        C  0.89444170  0.62613408  0.30125165     0.01400
C160        C  0.91631757  0.68363667  0.28184322    -0.24100
H161        H  0.91868735  0.53632081  0.07561120     0.09400
H162        H  0.94182935  0.52655517  0.15149591     0.13000
H163        H  0.89560518  0.74305780  0.08863867     0.11700
H164        H  0.92599228  0.79571110  0.15585800     0.12900
H165        H  0.93335258  0.78989861  0.23450269     0.11900
H166        H  0.92604091  0.52093849  0.21915906     0.09000
H167        H  0.89823328  0.52114635  0.29428054     0.12300
H168        H  0.91332859  0.72884406  0.29988166     0.14100
C169        C  0.80540384  0.68764824  0.34584637    -0.01400
C170        C  0.77857096  0.70751930  0.38591210    -0.09400
C171        C  0.73157204  0.75759513  0.38879582    -0.18200
C172        C  0.70810929  0.78957826  0.35138362     0.04200
C173        C  0.73191840  0.76708239  0.31070539     0.18300
C174        C  0.77866591  0.71650803  0.30830730    -0.19700
C175        C  0.70794916  0.79420901  0.27231687    -0.20900
C176        C  0.66047713  0.84315031  0.27343123    -0.19500
C177        C  0.63642040  0.86705435  0.31298332     0.19700
C178        C  0.66048333  0.84151370  0.35253214     0.01800
C179        C  0.63477334  0.86828148  0.39126778    -0.14200
C180        C  0.58720161  0.91803300  0.39079778    -0.11900
C181        C  0.55943166  0.94022382  0.35174756     0.01400
C182        C  0.58607924  0.91426341  0.31285649    -0.24100
H183        H  0.79349044  0.68343527  0.41539472     0.09400
H184        H  0.71317613  0.76892839  0.42066583     0.13000
H185        H  0.79264319  0.69872576  0.27656705     0.11700
H186        H  0.72555591  0.77696241  0.24111105     0.12900
H187        H  0.64224435  0.86229268  0.24304613     0.11900
H188        H  0.64827510  0.84955064  0.42240803     0.09000
H189        H  0.56583140  0.93351099  0.42124033     0.12300
H190        H  0.56543180  0.92692445  0.28182460     0.14100
C191        C  0.13050701  0.65686642  0.30482554    -0.01400
C192        C  0.15289949  0.71112004  0.28162104    -0.09400
C193        C  0.14282042  0.71745509  0.23727041    -0.18200
C194        C  0.11494208  0.66716036  0.21289360     0.04200
C195        C  0.09437265  0.61118610  0.23543594     0.18300
C196        C  0.09790705  0.60863294  0.28097480    -0.19700
C197        C  0.07522842  0.55627665  0.21214648    -0.20900
C198        C  0.07600486  0.55614661  0.16700093    -0.19500
C199        C  0.09315871  0.61183864  0.14390900     0.19700
C200        C  0.11218304  0.66825418  0.16667081     0.01800
C201        C  0.13079246  0.72243797  0.14212975    -0.14200
C202        C  0.13936562  0.71790248  0.09747699    -0.11900
C203        C  0.12514129  0.66056609  0.07450931     0.01400
C204        C  0.09548663  0.61017274  0.09824328    -0.24100
H205        H  0.18264029  0.74772775  0.29604478     0.09400
H206        H  0.16269356  0.76017893  0.22250983     0.13000
H207        H  0.08170500  0.56543055  0.29758060     0.11700
H208        H  0.06130833  0.51247109  0.22894378     0.12900
H209        H  0.06307350  0.51211849  0.15001241     0.11900
H210        H  0.14210620  0.76847347  0.15672064     0.09000
H211        H  0.16006955  0.75967002  0.08239198     0.12300
H212        H  0.08219571  0.56597240  0.08153758     0.14100
C213        C  0.43833074  0.93259011  0.37018476    -0.01400
C214        C  0.37295664  0.95479825  0.37560431    -0.09400
C215        C  0.32190422  0.91168952  0.38317520    -0.18200
C216        C  0.33403124  0.84425502  0.38669150     0.04200
C217        C  0.39990674  0.82234801  0.38586053     0.18300
C218        C  0.45004437  0.86527036  0.37650704    -0.19700
C219        C  0.41569227  0.75665878  0.39219542    -0.20900
C220        C  0.36694593  0.71165427  0.39760692    -0.19500
C221        C  0.30142078  0.73079614  0.39425405     0.19700
C222        C  0.28368271  0.79709738  0.38857663     0.01800
C223        C  0.21687720  0.81206057  0.38197895    -0.14200
C224        C  0.17236646  0.76239538  0.37405735    -0.11900
C225        C  0.19286530  0.69637001  0.37369443     0.01400
C226        C  0.25417388  0.68286990  0.39251934    -0.24100
H227        H  0.35956474  0.00497020  0.36985817     0.09400
H228        H  0.27316837  0.93225832  0.38517489     0.13000
H229        H  0.49757406  0.84330129  0.37153175     0.11700
H230        H  0.46614194  0.73981321  0.39253162     0.12900
H231        H  0.38068879  0.66095926  0.40176973     0.11900
H232        H  0.19901195  0.86135888  0.37855174     0.09000
H233        H  0.12399267  0.77648640  0.36327019     0.10700
H234        H  0.26869250  0.63361445  0.40066346     0.14100
C235        C  0.49288917  0.25347926  0.07284670    -0.01400
C236        C  0.54548391  0.22092893  0.09281466    -0.09400
C237        C  0.54443625  0.21008005  0.13748962    -0.18200
C238        C  0.48820161  0.22572399  0.16244077     0.04200
C239        C  0.43083083  0.24515554  0.13996625     0.18300
C240        C  0.43278795  0.25491358  0.09522994    -0.19700
C241        C  0.37354702  0.26129388  0.16262853    -0.20900
C242        C  0.37401416  0.26519567  0.20744409    -0.19500
C243        C  0.43117755  0.25092360  0.23048839     0.19700
C244        C  0.48772894  0.22702518  0.20865221     0.01800
C245        C  0.54223064  0.20922126  0.23402836    -0.14200
C246        C  0.54183380  0.21881972  0.27881917    -0.11900
C247        C  0.49022610  0.25324816  0.29933717     0.01400
C248        C  0.43326320  0.26501333  0.27482682    -0.24100
H249        H  0.59072361  0.21255752  0.07521728     0.09400
H250        H  0.58943804  0.19305154  0.15181382     0.13000
H251        H  0.38855964  0.27085288  0.07899475     0.11700
H252        H  0.32946635  0.27560924  0.14555331     0.12900
H253        H  0.33016135  0.28215500  0.22404603     0.11900
H254        H  0.58647477  0.18910210  0.22007617     0.09000
H255        H  0.58558024  0.20611812  0.29672388     0.12300
H256        H  0.39080411  0.28849945  0.28859196     0.14100
C257        C  0.19619854  0.57906785  0.34683444    -0.01400
C258        C  0.25572458  0.58673837  0.32411332    -0.09400
C259        C  0.30622542  0.54103866  0.32718738    -0.18200
C260        C  0.29662594  0.48204199  0.34875668     0.04200
C261        C  0.23263762  0.46705476  0.36227914     0.18300
C262        C  0.18332058  0.51578964  0.36241566    -0.19700
C263        C  0.21898988  0.40349319  0.37546704    -0.20900
C264        C  0.26800215  0.35529484  0.37488834    -0.19500
C265        C  0.33277032  0.37102558  0.36494841     0.19700
C266        C  0.34788981  0.43580469  0.35472304     0.01800
C267        C  0.41378221  0.45262326  0.35242454    -0.14200
C268        C  0.46288333  0.40531490  0.35506173    -0.11900
C269        C  0.44872559  0.33803079  0.35588069     0.01400
C270        C  0.38229488  0.32260994  0.36392008    -0.24100
H271        H  0.26591689  0.63200829  0.30783353     0.09400
H272        H  0.35216569  0.55213427  0.31176090     0.13000
H273        H  0.13584515  0.50199300  0.37353055     0.11700
H274        H  0.16999180  0.39063784  0.38514982     0.12900
H275        H  0.25562512  0.30604738  0.38354172     0.11900
H276        H  0.42833801  0.50270744  0.34973376     0.09000
H277        H  0.51185779  0.42344409  0.35447214     0.12300
H278        H  0.36702027  0.27280136  0.36555277     0.14100
C279        C  0.57002586  0.31909000  0.34173651    -0.01400
C280        C  0.61108644  0.32524345  0.37799050    -0.09400
C281        C  0.66333848  0.36800104  0.37812453    -0.18200
C282        C  0.67441277  0.41009783  0.34301375     0.04200
C283        C  0.63502374  0.40267719  0.30567052     0.18300
C284        C  0.58525211  0.35675818  0.30489096    -0.19700
C285        C  0.64262113  0.44390466  0.27014810    -0.20900
C286        C  0.68664245  0.49430154  0.27169907    -0.19500
C287        C  0.72481273  0.50406484  0.30854764     0.19700
C288        C  0.72073678  0.46131141  0.34430268     0.01800
C289        C  0.76167897  0.47316776  0.38014887    -0.14200
C290        C  0.80381884  0.52601789  0.38077285    -0.11900
C291        C  0.80781753  0.56865072  0.34535370     0.01400
C292        C  0.76671249  0.55694054  0.30973043    -0.24100
H293        H  0.60193179  0.29928467  0.40752734     0.09400
H294        H  0.69228932  0.36913737  0.40713217     0.13000
H295        H  0.55365662  0.35540177  0.27685242     0.11700
H296        H  0.61284722  0.43842909  0.24146821     0.12900
H297        H  0.69021393  0.52642581  0.24406728     0.11900
H298        H  0.76209210  0.44256205  0.40838070     0.09000
H299        H  0.83214418  0.53322884  0.40966201     0.12300
H300        H  0.76847534  0.58869684  0.28190126     0.14100
C301        C  0.50252105  0.28467182  0.84422032    -0.02600
C302        C  0.15155478  0.64141168  0.85200038    -0.02600
C303        C  0.85332019  0.62809255  0.84349515    -0.02600
C304        C  0.49291118  0.97887335  0.85296703    -0.02600
C305        C  0.50226829  0.28998851  0.52948331    -0.02600
C306        C  0.15102801  0.64634434  0.52777752    -0.02600
C307        C  0.85242160  0.64005941  0.53671681    -0.02600
C308        C  0.49551356  0.98967044  0.53125076    -0.02600
O309        O  0.05774090  0.68832327  0.88937706    -0.73000
O310        O  0.92968831  0.69086914  0.98780494    -0.74000
O311        O  0.06791160  0.69390170  0.98036827    -0.62600
O312        O  0.91947808  0.68556064  0.89599441    -0.71100
O313        O  0.93429286  0.57911101  0.89187450    -0.70600
O314        O  0.06486667  0.58783445  0.98959611    -0.61900
O315        O  0.92354706  0.58404373  0.98434711    -0.74400
O316        O  0.07361646  0.58353806  0.89867041    -0.73100
Cu317      Cu  0.99324712  0.69326231  0.93833969     1.04600
Cu318      Cu  0.99885238  0.57966658  0.94122089     1.04300
C319        C  0.09035954  0.63638538  0.88074071     0.93200
C320        C  0.90311287  0.63839061  0.00008947     0.92300
C321        C  0.09130819  0.64243608  0.99780633     0.84400
C322        C  0.90401687  0.63078202  0.87973819     0.90700
O323        O  0.44962137  0.20961876  0.89374249    -0.73000
O324        O  0.44673042  0.07220426  0.98468014    -0.74000
O325        O  0.44949876  0.20990713  0.98473759    -0.62600
O326        O  0.44585997  0.07045733  0.89367823    -0.71100
O327        O  0.55296111  0.05864060  0.89684775    -0.70600
O328        O  0.55718098  0.21332917  0.97984738    -0.61900
O329        O  0.55388537  0.07247098  0.98847581    -0.74400
O330        O  0.55648495  0.19970179  0.88819329    -0.73100
Cu331      Cu  0.44449473  0.14080181  0.93914333     1.04600
Cu332      Cu  0.55910633  0.13598743  0.93827623     1.04300
C333        C  0.50317733  0.22871779  0.87736378     0.93200
C334        C  0.49952325  0.04806190  0.00005104     0.92300
C335        C  0.50325150  0.23613505  0.99527695     0.84400
C336        C  0.49776948  0.03905129  0.88283395     0.90700
C337        C  0.80565662  0.70048156  0.53759069    -0.01400
C338        C  0.76132788  0.70601058  0.57251997    -0.09400
C339        C  0.71670534  0.75734069  0.57601489    -0.18200
C340        C  0.71470525  0.80719403  0.54492124     0.04200
C341        C  0.76106120  0.80428869  0.51065789     0.18300
C342        C  0.80402318  0.75040350  0.50629210    -0.19700
C343        C  0.76348958  0.85491195  0.48052834    -0.20900
C344        C  0.71746374  0.90545007  0.48176345    -0.19500
C345        C  0.66677838  0.90562869  0.51238024     0.19700
C346        C  0.66668568  0.85833263  0.54563218     0.01800
C347        C  0.61640521  0.86213370  0.57679099    -0.14200
C348        C  0.56540715  0.90711037  0.57290371    -0.11900
C349        C  0.56160992  0.95148175  0.53807363     0.01400
C350        C  0.61442439  0.95052414  0.50837207    -0.24100
H351        H  0.76123850  0.66997849  0.59791140     0.09400
H352        H  0.68459542  0.75640224  0.60369279     0.13000
H353        H  0.83437764  0.74809417  0.47777696     0.11700
H354        H  0.79991823  0.85435879  0.45496469     0.12900
H355        H  0.71925248  0.94250769  0.45695520     0.11900
H356        H  0.61319981  0.82919023  0.60369949     0.09000
H357        H  0.52610359  0.90392606  0.59625058     0.12300
H358        H  0.61409675  0.98053283  0.47998415     0.14100
C359        C  0.20029230  0.69925863  0.51142812    -0.01400
C360        C  0.18078208  0.76467971  0.50480034    -0.09400
C361        C  0.22649304  0.81378153  0.49869287    -0.18200
C362        C  0.29430075  0.79983405  0.49891360     0.04200
C363        C  0.31414028  0.73379490  0.50100895     0.18300
C364        C  0.26791151  0.68506998  0.50558426    -0.19700
C365        C  0.38055398  0.71631750  0.50004911    -0.20900
C366        C  0.42795231  0.76350919  0.49872049    -0.19500
C367        C  0.41014636  0.82935878  0.49942654     0.19700
C368        C  0.34326022  0.84861657  0.49876719     0.01800
C369        C  0.32857754  0.91570117  0.50034470    -0.14200
C370        C  0.37758743  0.96085042  0.50757526    -0.11900
C371        C  0.44376982  0.94145922  0.51277096     0.01400
C372        C  0.45916734  0.87561407  0.50364897    -0.24100
H373        H  0.13023863  0.77975079  0.50828604     0.09400
H374        H  0.20726696  0.86259101  0.49553823     0.13000
H375        H  0.28722363  0.63611391  0.50657958     0.11700
H376        H  0.39605179  0.66572054  0.50103421     0.12900
H377        H  0.47891433  0.74834117  0.49891739     0.11900
H378        H  0.27918279  0.93452241  0.49910789     0.09000
H379        H  0.36185328  0.01035099  0.51389396     0.12300
H380        H  0.50922496  0.85817566  0.50281112     0.14100
C381        C  0.44654125  0.34129405  0.52385738    -0.01400
C382        C  0.40506118  0.34606928  0.48767551    -0.09400
C383        C  0.35335100  0.39173264  0.48687007    -0.18200
C384        C  0.34122839  0.43416182  0.52228328     0.04200
C385        C  0.38439492  0.43030517  0.55799834     0.18300
C386        C  0.43734482  0.38697218  0.55744052    -0.19700
C387        C  0.37404221  0.46871753  0.59482774    -0.20900
C388        C  0.32114583  0.51124179  0.59711068    -0.19500
C389        C  0.27879344  0.51808394  0.56198377     0.19700
C390        C  0.28845211  0.48058493  0.52377252     0.01800
C391        C  0.24691083  0.49357457  0.48831451    -0.14200
C392        C  0.19953781  0.54341273  0.49029692    -0.11900
C393        C  0.18902818  0.58012804  0.52851358     0.01400
C394        C  0.22936828  0.56551661  0.56427759    -0.24100
H395        H  0.41232669  0.31538043  0.45959802     0.09400
H396        H  0.32282352  0.39187405  0.45857136     0.13000
H397        H  0.46976672  0.38569580  0.58510432     0.11700
H398        H  0.40668936  0.46530366  0.62231154     0.12900
H399        H  0.31431005  0.54024379  0.62619474     0.11900
H400        H  0.25271372  0.46881653  0.45773235     0.09000
H401        H  0.17420574  0.55580470  0.46071849     0.12300
H402        H  0.22708712  0.59577728  0.59300060     0.14100
C403        C  0.80547381  0.58136008  0.53329150    -0.01400
C404        C  0.77342136  0.56820968  0.49408428    -0.09400
C405        C  0.72641355  0.51953561  0.49098507    -0.18200
C406        C  0.70938017  0.48155483  0.52729883     0.04200
C407        C  0.73959587  0.49650239  0.56725896     0.18300
C408        C  0.78455410  0.54673795  0.57009827    -0.19700
C409        C  0.72371627  0.46240621  0.60484922    -0.20900
C410        C  0.67800201  0.41367167  0.60373292    -0.19500
C411        C  0.64688205  0.39771328  0.56499715     0.19700
C412        C  0.66211985  0.43090441  0.52612059     0.01800
C413        C  0.62766903  0.41327668  0.48844587    -0.14200
C414        C  0.58028234  0.36489781  0.48955129    -0.11900
C415        C  0.56478957  0.33189206  0.52801511     0.01400
C416        C  0.59837003  0.35055959  0.56578455    -0.24100
H417        H  0.78374117  0.59713669  0.46582473     0.09400
H418        H  0.70334326  0.51350929  0.46000514     0.13000
H419        H  0.80064241  0.56023154  0.60207259     0.11700
H420        H  0.74660364  0.47375415  0.63548851     0.12900
H421        H  0.66646208  0.38864574  0.63357064     0.11900
H422        H  0.63464058  0.43772160  0.45804153     0.09000
H423        H  0.55174674  0.35639378  0.46078265     0.12300
H424        H  0.58391624  0.33300173  0.59716701     0.14100
C425        C  0.47663084  0.00353863  0.80674795    -0.01400
C426        C  0.52041477  0.04543004  0.78603799    -0.09400
C427        C  0.51894820  0.05421612  0.74118631    -0.18200
C428        C  0.47002673  0.02617891  0.71546987     0.04200
C429        C  0.42117211  0.99030112  0.73698111     0.18300
C430        C  0.42552046  0.97820655  0.78154725    -0.19700
C431        C  0.37041902  0.96263827  0.71345172    -0.20900
C432        C  0.36955103  0.96624322  0.66862874    -0.19500
C433        C  0.41980788  0.99698792  0.64619154     0.19700
C434        C  0.46965177  0.02910503  0.66914598     0.01800
C435        C  0.51896883  0.05900276  0.64460205    -0.14200
C436        C  0.52068891  0.05418116  0.59939415    -0.11900
C437        C  0.47583981  0.01575436  0.57688359     0.01400
C438        C  0.42321545  0.99053366  0.60103325    -0.24100
H439        H  0.56056559  0.06576531  0.80399589     0.09400
H440        H  0.55870492  0.08050152  0.72736049     0.13000
H441        H  0.39104480  0.94480664  0.79507699     0.11700
H442        H  0.33237616  0.93590848  0.72971032     0.12900
H443        H  0.33089040  0.94209928  0.65131674     0.11900
H444        H  0.55913759  0.08320430  0.65958488     0.09000
H445        H  0.56196007  0.07432544  0.58235305     0.12300
H446        H  0.38794961  0.95925189  0.58645806     0.14100
C447        C  0.89394879  0.63891002  0.57849785    -0.01400
C448        C  0.91891110  0.58011911  0.59512145    -0.09400
C449        C  0.93177287  0.57467313  0.63930271    -0.18200
C450        C  0.92938539  0.63004958  0.66644076     0.04200
C451        C  0.92315876  0.69168060  0.64644133     0.18300
C452        C  0.90562269  0.69576732  0.60265192    -0.19700
C453        C  0.92858503  0.74842878  0.67113326    -0.20900
C454        C  0.93277708  0.74506634  0.71604961    -0.19500
C455        C  0.92862522  0.68510316  0.73705616     0.19700
C456        C  0.92907960  0.62661226  0.71252136     0.01800
C457        C  0.92319013  0.56753715  0.73510437    -0.14200
C458        C  0.90679304  0.56743190  0.77893062    -0.11900
C459        C  0.89444301  0.62612912  0.80125359     0.01400
C460        C  0.91631981  0.68363189  0.78184597    -0.24100
H461        H  0.91868552  0.53632271  0.57561173     0.09400
H462        H  0.94182504  0.52655356  0.65149655     0.13000
H463        H  0.89561291  0.74306021  0.58864168     0.11700
H464        H  0.92599941  0.79570992  0.65586241     0.12900
H465        H  0.93335813  0.78989468  0.73450702     0.11900
H466        H  0.92603933  0.52093546  0.71915972     0.09000
H467        H  0.89823450  0.52114133  0.79428160     0.12300
H468        H  0.91333172  0.72883872  0.79988503     0.14100
C469        C  0.80540433  0.68764251  0.84584830    -0.01400
C470        C  0.77856978  0.70751187  0.88591389    -0.09400
C471        C  0.73157063  0.75758769  0.88879777    -0.18200
C472        C  0.70811052  0.78957342  0.85138580     0.04200
C473        C  0.73192198  0.76707976  0.81070765     0.18300
C474        C  0.77866846  0.71650446  0.80830937    -0.19700
C475        C  0.70795619  0.79420952  0.77231920    -0.20900
C476        C  0.66048551  0.84315202  0.77343351    -0.19500
C477        C  0.63642624  0.86705383  0.81298548     0.19700
C478        C  0.66048512  0.84150952  0.85253437     0.01800
C479        C  0.63477144  0.86827409  0.89126994    -0.14200
C480        C  0.58720086  0.91802691  0.89079973    -0.11900
C481        C  0.55943493  0.94022124  0.85174909     0.01400
C482        C  0.58608595  0.91426382  0.81285825    -0.24100
H483        H  0.79348817  0.68342654  0.91539624     0.09400
H484        H  0.71317301  0.76891917  0.92066742     0.13000
H485        H  0.79264651  0.69872328  0.77656901     0.11700
H486        H  0.72556481  0.77696462  0.74111346     0.12900
H487        H  0.64225551  0.86229693  0.74304829     0.11900
H488        H  0.64826879  0.84953957  0.92240993     0.09000
H489        H  0.56582771  0.93350245  0.92124176     0.12300
H490        H  0.56544146  0.92692735  0.78182597     0.14100
C491        C  0.13050316  0.65686707  0.80482722    -0.01400
C492        C  0.15289089  0.71112332  0.78162345    -0.09400
C493        C  0.14280970  0.71745926  0.73727302    -0.18200
C494        C  0.11493450  0.66716302  0.71289586     0.04200
C495        C  0.09436810  0.61118738  0.73543793     0.18300
C496        C  0.09790353  0.60863352  0.78097655    -0.19700
C497        C  0.07522613  0.55627731  0.71214842    -0.20900
C498        C  0.07600201  0.55614759  0.66700298    -0.19500
C499        C  0.09315376  0.61184034  0.64391113     0.19700
C500        C  0.11217572  0.66825672  0.66667303     0.01800
C501        C  0.13078373  0.72244088  0.64213193    -0.14200
C502        C  0.13935788  0.71790521  0.59747923    -0.11900
C503        C  0.12513586  0.66056808  0.57451145     0.01400
C504        C  0.09548215  0.61017427  0.59824541    -0.24100
H505        H  0.18262923  0.74773272  0.79604739     0.09400
H506        H  0.16267895  0.76018510  0.72251282     0.13000
H507        H  0.08170349  0.56542998  0.79758209     0.11700
H508        H  0.06130811  0.51247083  0.72894573     0.12900
H509        H  0.06307217  0.51211908  0.65001440     0.11900
H510        H  0.14209614  0.76847680  0.65672279     0.09000
H511        H  0.16006072  0.75967342  0.58239448     0.12300
H512        H  0.08219268  0.56597339  0.58153973     0.14100
C513        C  0.43833389  0.93258543  0.87018397    -0.01400
C514        C  0.37296006  0.95479309  0.87560552    -0.09400
C515        C  0.32190800  0.91168392  0.88317610    -0.18200
C516        C  0.33403505  0.84424911  0.88668973     0.04200
C517        C  0.39991030  0.82234168  0.88585527     0.18300
C518        C  0.45004738  0.86526467  0.87650201    -0.19700
C519        C  0.41569602  0.75665176  0.89218685    -0.20900
C520        C  0.36694985  0.71164726  0.89759935    -0.19500
C521        C  0.30142446  0.73079015  0.89425061     0.19700
C522        C  0.28368634  0.79709183  0.88857584     0.01800
C523        C  0.21688015  0.81205614  0.88198220    -0.14200
C524        C  0.17236814  0.76239193  0.87406112    -0.11900
C525        C  0.19286656  0.69636651  0.87369529     0.01400
C526        C  0.25417667  0.68286471  0.89251753    -0.24100
H527        H  0.35956756  0.00496545  0.86986145     0.09400
H528        H  0.27317255  0.93225279  0.88517791     0.13000
H529        H  0.49757649  0.84329567  0.87152350     0.11700
H530        H  0.46614557  0.73980578  0.89252012     0.12900
H531        H  0.38069264  0.66095198  0.90175991     0.11900
H532        H  0.19901480  0.86135479  0.87855766     0.09000
H533        H  0.12399356  0.77648421  0.86327655     0.10700
H534        H  0.26869543  0.63360882  0.90066024     0.14100
C535        C  0.49289470  0.25348130  0.57284619    -0.01400
C536        C  0.54549173  0.22093431  0.59281414    -0.09400
C537        C  0.54444417  0.21008460  0.63748903    -0.18200
C538        C  0.48820824  0.22572508  0.66243982     0.04200
C539        C  0.43083668  0.24515355  0.63996498     0.18300
C540        C  0.43279332  0.25491039  0.59522878    -0.19700
C541        C  0.37355215  0.26129058  0.66262668    -0.20900
C542        C  0.37401873  0.26519352  0.70744208    -0.19500
C543        C  0.43118189  0.25092236  0.73048676     0.19700
C544        C  0.48773435  0.22702551  0.70865118     0.01800
C545        C  0.54223541  0.20922144  0.73402792    -0.14200
C546        C  0.54183651  0.21881829  0.77881888    -0.11900
C547        C  0.49022768  0.25324564  0.79933640     0.01400
C548        C  0.43326564  0.26501089  0.77482527    -0.24100
H549        H  0.59073211  0.21256638  0.57521694     0.09400
H550        H  0.58944683  0.19305847  0.65181359     0.13000
H551        H  0.38856400  0.27084624  0.57899322     0.11700
H552        H  0.32947132  0.27560416  0.64555117     0.12900
H553        H  0.33016531  0.28215198  0.72404358     0.11900
H554        H  0.58647995  0.18910277  0.72007610     0.09000
H555        H  0.58558257  0.20611667  0.79672427     0.12300
H556        H  0.39080584  0.28849572  0.78858981     0.14100
C557        C  0.19619684  0.57906585  0.84683237    -0.01400
C558        C  0.25572192  0.58673676  0.82411014    -0.09400
C559        C  0.30622258  0.54103651  0.82718281    -0.18200
C560        C  0.29662338  0.48203917  0.84875137     0.04200
C561        C  0.23263506  0.46705162  0.86227378     0.18300
C562        C  0.18331841  0.51578685  0.86241177    -0.19700
C563        C  0.21898720  0.40348964  0.87546061    -0.20900
C564        C  0.26799968  0.35529156  0.87488216    -0.19500
C565        C  0.33276812  0.37102274  0.86494343     0.19700
C566        C  0.34788738  0.43580188  0.85471773     0.01800
C567        C  0.41377974  0.45262071  0.85241955    -0.14200
C568        C  0.46288121  0.40531279  0.85505806    -0.11900
C569        C  0.44872414  0.33802857  0.85587846     0.01400
C570        C  0.38229326  0.32260753  0.86391698    -0.24100
H571        H  0.26591383  0.63200721  0.80783113     0.09400
H572        H  0.35216279  0.55213253  0.81175612     0.13000
H573        H  0.13584280  0.50199010  0.87352657     0.11700
H574        H  0.16998892  0.39063394  0.88514283     0.12900
H575        H  0.25562262  0.30604390  0.88353516     0.11900
H576        H  0.42833531  0.50270488  0.84972821     0.09000
H577        H  0.51185552  0.42344226  0.85446860     0.12300
H578        H  0.36701916  0.27279873  0.86555047     0.14100
C579        C  0.57002541  0.31908784  0.84173659    -0.01400
C580        C  0.61108655  0.32523956  0.87799041    -0.09400
C581        C  0.66334040  0.36799501  0.87812423    -0.18200
C582        C  0.67441623  0.41009110  0.84301330     0.04200
C583        C  0.63502753  0.40267105  0.80566988     0.18300
C584        C  0.58525338  0.35675487  0.80489082    -0.19700
C585        C  0.64262795  0.44389638  0.77014665    -0.20900
C586        C  0.68664968  0.49429278  0.77169785    -0.19500
C587        C  0.72481751  0.50405742  0.80854738     0.19700
C588        C  0.72074091  0.46130397  0.84430238     0.01800
C589        C  0.76168246  0.47316015  0.88014889    -0.14200
C590        C  0.80382157  0.52601084  0.88077355    -0.11900
C591        C  0.80781938  0.56864478  0.84535498     0.01400
C592        C  0.76671526  0.55693456  0.80973127    -0.24100
H593        H  0.60193142  0.29928074  0.90752710     0.09400
H594        H  0.69229152  0.36913033  0.90713180     0.13000
H595        H  0.55365809  0.35539928  0.77685217     0.11700
H596        H  0.61285532  0.43842017  0.74146622     0.12900
H597        H  0.69022273  0.52641626  0.74406563     0.11900
H598        H  0.76209565  0.44255380  0.90838044     0.09000
H599        H  0.83214699  0.53322135  0.90966272     0.12300
H600        H  0.76847766  0.58869177  0.78190256     0.14100
loop_ 
_geom_bond_atom_site_label_1 
_geom_bond_atom_site_label_2 
_geom_bond_distance 
_geom_bond_site_symmetry_2 
_ccdc_geom_bond_type 
C1           C33   1.543       .  S
C1          C247   1.551       .  S
C1          C269   1.582       .  S
C1          C279   1.566       .  S
C2           C19   1.538       .  S
C2          C191   1.553       .  S
C2          C225   1.574       .  S
C2          C257   1.570       .  S
C3           C22   1.531       .  S
C3          C159   1.550       .  S
C3          C169   1.558       .  S
C3          C291   1.552       .  S
C4           C36   1.547   1_565  S
C4          C125   1.552   1_565  S
C4          C181   1.566       .  S
C4          C213   1.573       .  S
C5           C81   1.552       .  S
C5          C115   1.557       .  S
C5          C235   1.551       .  S
C5          C335   1.529   1_554  S
C6           C59   1.580       .  S
C6           C93   1.558       .  S
C6          C203   1.561       .  S
C6          C321   1.540   1_554  S
C7           C37   1.557       .  S
C7          C103   1.561       .  S
C7          C147   1.548       .  S
C7          C320   1.532       .  S
C8           C49   1.569       .  S
C8           C71   1.572       .  S
C8          C137   1.556   1_565  S
C8          C334   1.546   1_565  S
O9          Cu17   2.005   1_455  S
O9           C19   1.278       .  A
O10         Cu17   2.004       .  S
O10          C20   1.276       .  A
O11         Cu17   2.010   1_455  S
O11          C21   1.277       .  A
O12         Cu17   2.010       .  S
O12          C22   1.279       .  A
O13         Cu18   2.022       .  S
O13          C22   1.280       .  A
O14         Cu18   2.027   1_455  S
O14          C21   1.281       .  A
O15         Cu18   2.034       .  S
O15          C20   1.282       .  A
O16         Cu18   2.016   1_455  S
O16          C19   1.274       .  A
Cu17        Cu18   2.342       .  S
C20         C307   1.532       .  S
C21         C306   1.540       .  S
O23         Cu31   2.000       .  S
O23          C33   1.275       .  A
O24         Cu31   1.996       .  S
O24          C34   1.276       .  A
O25         Cu31   2.003       .  S
O25          C35   1.277       .  A
O26         Cu31   2.014       .  S
O26          C36   1.277       .  A
O27         Cu32   2.046       .  S
O27          C36   1.283       .  A
O28         Cu32   2.042       .  S
O28          C35   1.282       .  A
O29         Cu32   2.035       .  S
O29          C34   1.279       .  A
O30         Cu32   2.031       .  S
O30          C33   1.281       .  A
Cu31        Cu32   2.347       .  S
C34         C308   1.546   1_545  S
C35         C305   1.529       .  S
C37          C38   1.410       .  A
C37          C42   1.413       .  A
C38          C39   1.389       .  A
C38          H51   1.081       .  S
C39          C40   1.408       .  A
C39          H52   1.077       .  S
C40          C46   1.428       .  A
C40          C41   1.419       .  A
C41          C43   1.401   1_554  A
C41          C42   1.410       .  A
C42          H53   1.076   1_554  S
C43          C44   1.392       .  A
C43          H54   1.084       .  S
C44          C45   1.401   1_556  A
C44          H55   1.084       .  S
C45          C46   1.417       .  A
C45          C50   1.409       .  A
C46          C47   1.407       .  A
C47          C48   1.389       .  A
C47          H56   1.077       .  S
C48          C49   1.415       .  A
C48          H57   1.081       .  S
C49          C50   1.415       .  A
C50          H58   1.074   1_554  S
C59          C60   1.414       .  A
C59          C64   1.421       .  A
C60          C61   1.402   1_554  A
C60          H73   1.080       .  S
C61          C62   1.413       .  A
C61          H74   1.078       .  S
C62          C68   1.432       .  A
C62          C63   1.414   1_556  A
C63          C65   1.401       .  A
C63          C64   1.398       .  A
C64          H75   1.077       .  S
C65          C66   1.386   1_554  A
C65          H76   1.084       .  S
C66          C67   1.398       .  A
C66          H77   1.084       .  S
C67          C68   1.419       .  A
C67          C72   1.402   1_556  A
C68          C69   1.409   1_556  A
C69          C70   1.398       .  A
C69          H78   1.078   1_554  S
C70          C71   1.416       .  A
C70          H79   1.081   1_565  S
C71          C72   1.414       .  A
C72          H80   1.080       .  S
C81          C82   1.409   1_554  A
C81          C86   1.408       .  A
C82          C83   1.404       .  A
C82          H95   1.080       .  S
C83          C84   1.416   1_556  A
C83          H96   1.077       .  S
C84          C90   1.431       .  A
C84          C85   1.418       .  A
C85          C87   1.397       .  A
C85          C86   1.392       .  A
C86          H97   1.084       .  S
C87          C88   1.382       .  A
C87          H98   1.084       .  S
C88          C89   1.397       .  A
C88          H99   1.084       .  S
C89          C90   1.420       .  A
C89          C94   1.396       .  A
C90          C91   1.413   1_554  A
C91          C92   1.401       .  A
C91         H100   1.077       .  S
C92          C93   1.413   1_556  A
C92         H101   1.081       .  S
C93          C94   1.412       .  A
C94         H102   1.083       .  S
C103        C104   1.407   1_554  A
C103        C108   1.413       .  A
C104        C105   1.405       .  A
C104        H117   1.080       .  S
C105        C106   1.415   1_556  A
C105        H118   1.077       .  S
C106        C112   1.436       .  A
C106        C107   1.418       .  A
C107        C109   1.399       .  A
C107        C108   1.399       .  A
C108        H119   1.079       .  S
C109        C110   1.385       .  A
C109        H120   1.084       .  S
C110        C111   1.399       .  A
C110        H121   1.084       .  S
C111        C112   1.420       .  A
C111        C116   1.401       .  A
C112        C113   1.413   1_554  A
C113        C114   1.403       .  A
C113        H122   1.077       .  S
C114        C115   1.408   1_556  A
C114        H123   1.081       .  S
C115        C116   1.412       .  A
C116        H124   1.078       .  S
C125        C126   1.408       .  A
C125        C130   1.413   1_545  A
C126        C127   1.398       .  A
C126        H139   1.083       .  S
C127        C128   1.411       .  A
C127        H140   1.073       .  S
C128        C134   1.432       .  A
C128        C129   1.418   1_545  A
C129        C131   1.399       .  A
C129        C130   1.402       .  A
C130        H141   1.078       .  S
C131        C132   1.387       .  A
C131        H142   1.084       .  S
C132        C133   1.400       .  A
C132        H143   1.084       .  S
C133        C134   1.417   1_565  A
C133        C138   1.402       .  A
C134        C135   1.411       .  A
C135        C136   1.400       .  A
C135        H144   1.075       .  S
C136        C137   1.407       .  A
C136        H145   1.083       .  S
C137        C138   1.415   1_545  A
C138        H146   1.075       .  S
C147        C148   1.405       .  A
C147        C152   1.411       .  A
C148        C149   1.395       .  A
C148        H161   1.083       .  S
C149        C150   1.413       .  A
C149        H162   1.078       .  S
C150        C156   1.425       .  A
C150        C151   1.417       .  A
C151        C153   1.400       .  A
C151        C152   1.403       .  A
C152        H163   1.083       .  S
C153        C154   1.392       .  A
C153        H164   1.084       .  S
C154        C155   1.400       .  A
C154        H165   1.084       .  S
C155        C156   1.421       .  A
C155        C160   1.406       .  A
C156        C157   1.411       .  A
C157        C158   1.393       .  A
C157        H166   1.078       .  S
C158        C159   1.408       .  A
C158        H167   1.082       .  S
C159        C160   1.408       .  A
C160        H168   1.084       .  S
C169        C170   1.409       .  A
C169        C174   1.412       .  A
C170        C171   1.400       .  A
C170        H183   1.081       .  S
C171        C172   1.413       .  A
C171        H184   1.076       .  S
C172        C178   1.435       .  A
C172        C173   1.419       .  A
C173        C175   1.399       .  A
C173        C174   1.404       .  A
C174        H185   1.081       .  S
C175        C176   1.388       .  A
C175        H186   1.084       .  S
C176        C177   1.400       .  A
C176        H187   1.084       .  S
C177        C178   1.418       .  A
C177        C182   1.404       .  A
C178        C179   1.412       .  A
C179        C180   1.401       .  A
C179        H188   1.073       .  S
C180        C181   1.409       .  A
C180        H189   1.080       .  S
C181        C182   1.417       .  A
C182        H190   1.080       .  S
C191        C192   1.411       .  A
C191        C196   1.413       .  A
C192        C193   1.392       .  A
C192        H205   1.074       .  S
C193        C194   1.409       .  A
C193        H206   1.077       .  S
C194        C200   1.429       .  A
C194        C195   1.418       .  A
C195        C197   1.401       .  A
C195        C196   1.410       .  A
C196        H207   1.084       .  S
C197        C198   1.394       .  A
C197        H208   1.084       .  S
C198        C199   1.401       .  A
C198        H209   1.084       .  S
C199        C200   1.417       .  A
C199        C204   1.411       .  A
C200        C201   1.408       .  A
C201        C202   1.392       .  A
C201        H210   1.078       .  S
C202        C203   1.411       .  A
C202        H211   1.072       .  S
C203        C204   1.416       .  A
C204        H212   1.084       .  S
C213        C214   1.416       .  A
C213        C218   1.417       .  A
C214        C215   1.403       .  A
C214        H227   1.080   1_565  S
C215        C216   1.411       .  A
C215        H228   1.079       .  S
C216        C222   1.430       .  A
C216        C217   1.415       .  A
C217        C219   1.400       .  A
C217        C218   1.396       .  A
C218        H229   1.076       .  S
C219        C220   1.384       .  A
C219        H230   1.084       .  S
C220        C221   1.396       .  A
C220        H231   1.084       .  S
C221        C222   1.418       .  A
C221        C226   1.395       .  A
C222        C223   1.413       .  A
C223        C224   1.403       .  A
C223        H232   1.079       .  S
C224        C225   1.416       .  A
C224        H233   1.081       .  S
C225        C226   1.409       .  A
C226        H234   1.082       .  S
C235        C236   1.404       .  A
C235        C240   1.409       .  A
C236        C237   1.398       .  A
C236        H249   1.083       .  S
C237        C238   1.415       .  A
C237        H250   1.077       .  S
C238        C244   1.427       .  A
C238        C239   1.419       .  A
C239        C241   1.398       .  A
C239        C240   1.397       .  A
C240        H251   1.083       .  S
C241        C242   1.386       .  A
C241        H252   1.084       .  S
C242        C243   1.400       .  A
C242        H253   1.084       .  S
C243        C244   1.418       .  A
C243        C248   1.400       .  A
C244        C245   1.410       .  A
C245        C246   1.397       .  A
C245        H254   1.077       .  S
C246        C247   1.409       .  A
C246        H255   1.083       .  S
C247        C248   1.411       .  A
C248        H256   1.073       .  S
C257        C258   1.415       .  A
C257        C262   1.419       .  A
C258        C259   1.390       .  A
C258        H271   1.083       .  S
C259        C260   1.404       .  A
C259        H272   1.081       .  S
C260        C266   1.418       .  A
C260        C261   1.413       .  A
C261        C263   1.404       .  A
C261        C262   1.411       .  A
C262        H273   1.073       .  S
C263        C264   1.399       .  A
C263        H274   1.083       .  S
C264        C265   1.404       .  A
C264        H275   1.083       .  S
C265        C266   1.411       .  A
C265        C270   1.410       .  A
C266        C267   1.400       .  A
C267        C268   1.390       .  A
C267        H276   1.082       .  S
C268        C269   1.421       .  A
C268        H277   1.076       .  S
C269        C270   1.423       .  A
C270        H278   1.079       .  S
C279        C280   1.410       .  A
C279        C284   1.416       .  A
C280        C281   1.397       .  A
C280        H293   1.076       .  S
C281        C282   1.410       .  A
C281        H294   1.077       .  S
C282        C288   1.431       .  A
C282        C283   1.419       .  A
C283        C285   1.399       .  A
C283        C284   1.402       .  A
C284        H295   1.084       .  S
C285        C286   1.387       .  A
C285        H296   1.084       .  S
C286        C287   1.399       .  A
C286        H297   1.084       .  S
C287        C288   1.417       .  A
C287        C292   1.398       .  A
C288        C289   1.415       .  A
C289        C290   1.401       .  A
C289        H298   1.077       .  S
C290        C291   1.408       .  A
C290        H299   1.077       .  S
C291        C292   1.411       .  A
C292        H300   1.082       .  S
C301        C333   1.543       .  S
C301        C547   1.551       .  S
C301        C569   1.582       .  S
C301        C579   1.566       .  S
C302        C319   1.538       .  S
C302        C491   1.553       .  S
C302        C525   1.574       .  S
C302        C557   1.570       .  S
C303        C322   1.531       .  S
C303        C459   1.550       .  S
C303        C469   1.558       .  S
C303        C591   1.552       .  S
C304        C336   1.547   1_565  S
C304        C425   1.552   1_565  S
C304        C481   1.566       .  S
C304        C513   1.573       .  S
C305        C381   1.552       .  S
C305        C415   1.557       .  S
C305        C535   1.551       .  S
C306        C359   1.580       .  S
C306        C393   1.558       .  S
C306        C503   1.561       .  S
C307        C337   1.557       .  S
C307        C403   1.561       .  S
C307        C447   1.548       .  S
C308        C349   1.569       .  S
C308        C371   1.572       .  S
C308        C437   1.556   1_565  S
O309       Cu317   2.005   1_455  S
O309        C319   1.278       .  A
O310       Cu317   2.004       .  S
O310        C320   1.276   1_556  A
O311       Cu317   2.010   1_455  S
O311        C321   1.277       .  A
O312       Cu317   2.010       .  S
O312        C322   1.279       .  A
O313       Cu318   2.022       .  S
O313        C322   1.280       .  A
O314       Cu318   2.027   1_455  S
O314        C321   1.281       .  A
O315       Cu318   2.034       .  S
O315        C320   1.282   1_556  A
O316       Cu318   2.016   1_455  S
O316        C319   1.274       .  A
Cu317      Cu318   2.342       .  S
O323       Cu331   2.000       .  S
O323        C333   1.275       .  A
O324       Cu331   1.996       .  S
O324        C334   1.276   1_556  A
O325       Cu331   2.003       .  S
O325        C335   1.277       .  A
O326       Cu331   2.014       .  S
O326        C336   1.277       .  A
O327       Cu332   2.046       .  S
O327        C336   1.283       .  A
O328       Cu332   2.042       .  S
O328        C335   1.282       .  A
O329       Cu332   2.035       .  S
O329        C334   1.279   1_556  A
O330       Cu332   2.031       .  S
O330        C333   1.281       .  A
Cu331      Cu332   2.347       .  S
C337        C338   1.410       .  A
C337        C342   1.413       .  A
C338        C339   1.389       .  A
C338        H351   1.081       .  S
C339        C340   1.408       .  A
C339        H352   1.077       .  S
C340        C346   1.428       .  A
C340        C341   1.419       .  A
C341        C343   1.401       .  A
C341        C342   1.410       .  A
C342        H353   1.076       .  S
C343        C344   1.392       .  A
C343        H354   1.084       .  S
C344        C345   1.401       .  A
C344        H355   1.084       .  S
C345        C346   1.417       .  A
C345        C350   1.409       .  A
C346        C347   1.407       .  A
C347        C348   1.389       .  A
C347        H356   1.077       .  S
C348        C349   1.415       .  A
C348        H357   1.081       .  S
C349        C350   1.415       .  A
C350        H358   1.074       .  S
C359        C360   1.414       .  A
C359        C364   1.421       .  A
C360        C361   1.402       .  A
C360        H373   1.080       .  S
C361        C362   1.413       .  A
C361        H374   1.078       .  S
C362        C368   1.432       .  A
C362        C363   1.414       .  A
C363        C365   1.401       .  A
C363        C364   1.398       .  A
C364        H375   1.077       .  S
C365        C366   1.386       .  A
C365        H376   1.084       .  S
C366        C367   1.398       .  A
C366        H377   1.084       .  S
C367        C368   1.419       .  A
C367        C372   1.402       .  A
C368        C369   1.409       .  A
C369        C370   1.398       .  A
C369        H378   1.078       .  S
C370        C371   1.416       .  A
C370        H379   1.081   1_565  S
C371        C372   1.414       .  A
C372        H380   1.080       .  S
C381        C382   1.409       .  A
C381        C386   1.408       .  A
C382        C383   1.404       .  A
C382        H395   1.080       .  S
C383        C384   1.416       .  A
C383        H396   1.077       .  S
C384        C390   1.431       .  A
C384        C385   1.418       .  A
C385        C387   1.397       .  A
C385        C386   1.392       .  A
C386        H397   1.084       .  S
C387        C388   1.382       .  A
C387        H398   1.084       .  S
C388        C389   1.397       .  A
C388        H399   1.084       .  S
C389        C390   1.420       .  A
C389        C394   1.396       .  A
C390        C391   1.413       .  A
C391        C392   1.401       .  A
C391        H400   1.077       .  S
C392        C393   1.413       .  A
C392        H401   1.081       .  S
C393        C394   1.412       .  A
C394        H402   1.083       .  S
C403        C404   1.407       .  A
C403        C408   1.413       .  A
C404        C405   1.405       .  A
C404        H417   1.080       .  S
C405        C406   1.415       .  A
C405        H418   1.077       .  S
C406        C412   1.436       .  A
C406        C407   1.418       .  A
C407        C409   1.399       .  A
C407        C408   1.399       .  A
C408        H419   1.079       .  S
C409        C410   1.385       .  A
C409        H420   1.084       .  S
C410        C411   1.399       .  A
C410        H421   1.084       .  S
C411        C412   1.420       .  A
C411        C416   1.401       .  A
C412        C413   1.413       .  A
C413        C414   1.403       .  A
C413        H422   1.077       .  S
C414        C415   1.408       .  A
C414        H423   1.081       .  S
C415        C416   1.412       .  A
C416        H424   1.078       .  S
C425        C426   1.408       .  A
C425        C430   1.413   1_545  A
C426        C427   1.398       .  A
C426        H439   1.083       .  S
C427        C428   1.411       .  A
C427        H440   1.073       .  S
C428        C434   1.432       .  A
C428        C429   1.418   1_545  A
C429        C431   1.399       .  A
C429        C430   1.402       .  A
C430        H441   1.078       .  S
C431        C432   1.387       .  A
C431        H442   1.084       .  S
C432        C433   1.400       .  A
C432        H443   1.084       .  S
C433        C434   1.417   1_565  A
C433        C438   1.402       .  A
C434        C435   1.411       .  A
C435        C436   1.400       .  A
C435        H444   1.075       .  S
C436        C437   1.407       .  A
C436        H445   1.083       .  S
C437        C438   1.415   1_545  A
C438        H446   1.075       .  S
C447        C448   1.405       .  A
C447        C452   1.411       .  A
C448        C449   1.395       .  A
C448        H461   1.083       .  S
C449        C450   1.413       .  A
C449        H462   1.078       .  S
C450        C456   1.425       .  A
C450        C451   1.417       .  A
C451        C453   1.400       .  A
C451        C452   1.403       .  A
C452        H463   1.083       .  S
C453        C454   1.392       .  A
C453        H464   1.084       .  S
C454        C455   1.400       .  A
C454        H465   1.084       .  S
C455        C456   1.421       .  A
C455        C460   1.406       .  A
C456        C457   1.411       .  A
C457        C458   1.393       .  A
C457        H466   1.078       .  S
C458        C459   1.408       .  A
C458        H467   1.082       .  S
C459        C460   1.408       .  A
C460        H468   1.084       .  S
C469        C470   1.409       .  A
C469        C474   1.412       .  A
C470        C471   1.400       .  A
C470        H483   1.081       .  S
C471        C472   1.413       .  A
C471        H484   1.076       .  S
C472        C478   1.435       .  A
C472        C473   1.419       .  A
C473        C475   1.399       .  A
C473        C474   1.404       .  A
C474        H485   1.081       .  S
C475        C476   1.388       .  A
C475        H486   1.084       .  S
C476        C477   1.400       .  A
C476        H487   1.084       .  S
C477        C478   1.418       .  A
C477        C482   1.404       .  A
C478        C479   1.412       .  A
C479        C480   1.401       .  A
C479        H488   1.073       .  S
C480        C481   1.409       .  A
C480        H489   1.080       .  S
C481        C482   1.417       .  A
C482        H490   1.080       .  S
C491        C492   1.411       .  A
C491        C496   1.413       .  A
C492        C493   1.392       .  A
C492        H505   1.074       .  S
C493        C494   1.409       .  A
C493        H506   1.077       .  S
C494        C500   1.429       .  A
C494        C495   1.418       .  A
C495        C497   1.401       .  A
C495        C496   1.410       .  A
C496        H507   1.084       .  S
C497        C498   1.394       .  A
C497        H508   1.084       .  S
C498        C499   1.401       .  A
C498        H509   1.084       .  S
C499        C500   1.417       .  A
C499        C504   1.411       .  A
C500        C501   1.408       .  A
C501        C502   1.392       .  A
C501        H510   1.078       .  S
C502        C503   1.411       .  A
C502        H511   1.072       .  S
C503        C504   1.416       .  A
C504        H512   1.084       .  S
C513        C514   1.416       .  A
C513        C518   1.417       .  A
C514        C515   1.403       .  A
C514        H527   1.080   1_565  S
C515        C516   1.411       .  A
C515        H528   1.079       .  S
C516        C522   1.430       .  A
C516        C517   1.415       .  A
C517        C519   1.400       .  A
C517        C518   1.396       .  A
C518        H529   1.076       .  S
C519        C520   1.384       .  A
C519        H530   1.084       .  S
C520        C521   1.396       .  A
C520        H531   1.084       .  S
C521        C522   1.418       .  A
C521        C526   1.395       .  A
C522        C523   1.413       .  A
C523        C524   1.403       .  A
C523        H532   1.079       .  S
C524        C525   1.416       .  A
C524        H533   1.081       .  S
C525        C526   1.409       .  A
C526        H534   1.082       .  S
C535        C536   1.404       .  A
C535        C540   1.409       .  A
C536        C537   1.398       .  A
C536        H549   1.083       .  S
C537        C538   1.415       .  A
C537        H550   1.077       .  S
C538        C544   1.427       .  A
C538        C539   1.419       .  A
C539        C541   1.398       .  A
C539        C540   1.397       .  A
C540        H551   1.083       .  S
C541        C542   1.386       .  A
C541        H552   1.084       .  S
C542        C543   1.400       .  A
C542        H553   1.084       .  S
C543        C544   1.418       .  A
C543        C548   1.400       .  A
C544        C545   1.410       .  A
C545        C546   1.397       .  A
C545        H554   1.077       .  S
C546        C547   1.409       .  A
C546        H555   1.083       .  S
C547        C548   1.411       .  A
C548        H556   1.073       .  S
C557        C558   1.416       .  A
C557        C562   1.419       .  A
C558        C559   1.390       .  A
C558        H571   1.083       .  S
C559        C560   1.404       .  A
C559        H572   1.081       .  S
C560        C566   1.418       .  A
C560        C561   1.413       .  A
C561        C563   1.404       .  A
C561        C562   1.411       .  A
C562        H573   1.073       .  S
C563        C564   1.399       .  A
C563        H574   1.083       .  S
C564        C565   1.404       .  A
C564        H575   1.083       .  S
C565        C566   1.411       .  A
C565        C570   1.410       .  A
C566        C567   1.400       .  A
C567        C568   1.390       .  A
C567        H576   1.082       .  S
C568        C569   1.421       .  A
C568        H577   1.076       .  S
C569        C570   1.423       .  A
C570        H578   1.079       .  S
C579        C580   1.410       .  A
C579        C584   1.416       .  A
C580        C581   1.397       .  A
C580        H593   1.076       .  S
C581        C582   1.410       .  A
C581        H594   1.077       .  S
C582        C588   1.431       .  A
C582        C583   1.419       .  A
C583        C585   1.399       .  A
C583        C584   1.402       .  A
C584        H595   1.084       .  S
C585        C586   1.387       .  A
C585        H596   1.084       .  S
C586        C587   1.399       .  A
C586        H597   1.084       .  S
C587        C588   1.417       .  A
C587        C592   1.398       .  A
C588        C589   1.415       .  A
C589        C590   1.401       .  A
C589        H598   1.077       .  S
C590        C591   1.408       .  A
C590        H599   1.077       .  S
C591        C592   1.411       .  A
C592        H600   1.082       .  S
