geometry optimzed in LAMMPS
_audit_creation_date              2020-11-30 
_audit_creation_method            'lammps2cif' 
_symmetry_space_group_name_H-M    'P1' 
_symmetry_Int_Tables_number       1 
_symmetry_cell_setting            triclinic 
loop_ 
_symmetry_equiv_pos_as_xyz 
  x,y,z 
_cell_length_a                    40.7164694 
_cell_length_b                    41.059381536032504 
_cell_length_c                    31.244365331217878 
_cell_angle_alpha                 90.58488505177716 
_cell_angle_beta                  90.4305148721855 
_cell_angle_gamma                 90.19909377223648 
loop_ 
_atom_site_label 
_atom_site_type_symbol 
_atom_site_fract_x 
_atom_site_fract_y 
_atom_site_fract_z 
_atom_site_charge 
C1          C  0.56282288  0.95514865  0.32166998    -0.11300
C2          C  0.58196870  0.98198555  0.33332005    -0.05200
C3          C  0.56813769  0.01537377  0.00345939    -0.11300
C4          C  0.53357984  0.01695263  0.00812383     0.09700
C5          C  0.51409574  0.98990813  0.32496486    -0.03100
C6          C  0.52845627  0.95880682  0.31702558     0.09500
C7          C  0.50816798  0.93252781  0.30482656    -0.13100
C8          C  0.47424191  0.93654030  0.30034417    -0.13100
C9          C  0.45955514  0.96693111  0.30803005     0.09500
C10         C  0.47971232  0.98951322  0.00411922    -0.03100
C11         C  0.51772458  0.04582838  0.02071046    -0.13200
C12         C  0.48350552  0.04688702  0.02489983    -0.13200
C13         C  0.46413051  0.01905730  0.01685405     0.09700
C14         C  0.42952841  0.01952132  0.02113989    -0.11300
C15         C  0.41153738  0.99118764  0.01301938    -0.05200
C16         C  0.42532329  0.97139044  0.30326723    -0.11300
H17         H  0.51849478  0.90869394  0.29857675     0.06900
H18         H  0.45951563  0.91569253  0.29063279     0.06900
H19         H  0.53175636  0.06778962  0.02728984     0.07100
H20         H  0.47225038  0.06960482  0.03468235     0.07100
H21         H  0.60842317  0.97899442  0.33601868     0.03500
H22         H  0.38492944  0.99193912  0.01556151     0.03500
C23         C  0.84996372  0.89689755  0.99650774     0.86000
C24         C  0.86562504  0.91260187  0.03696154    -0.54200
C25         C  0.89917895  0.91001138  0.03889474     0.09000
C26         C  0.91412027  0.89155902  0.00037691     0.19900
C27         C  0.86676091  0.91160765  0.29675161    -0.54900
C28         C  0.90033651  0.90994092  0.29724521     0.09100
C29         C  0.86237998  0.86182145  0.99639416    -0.54400
C30         C  0.89560778  0.85855057  0.99810178     0.09600
H31         H  0.85217186  0.92571653  0.06136822     0.14200
H32         H  0.94129203  0.88942754  0.00181438    -0.00100
H33         H  0.85312323  0.92433568  0.27206535     0.14500
H34         H  0.84587597  0.84095211  0.99534211     0.14300
N35         N  0.05724514  0.95763519  0.21909935    -0.06600
N36         N  0.07905652  0.94990923  0.24899793    -0.58700
N37         N  0.03371142  0.93620861  0.12019607    -0.06200
N38         N  0.03974819  0.91320675  0.09157704    -0.60800
N39         N  0.05738654  0.95820046  0.12034783    -0.05800
N40         N  0.07970251  0.95075724  0.09124837    -0.58700
N41         N  0.03346421  0.93579498  0.21755549    -0.05500
N42         N  0.03879649  0.91272141  0.24574379    -0.61200
C43         C  0.06707519  0.92185622  0.26533905     0.95600
C44         C  0.06827712  0.92267198  0.07355268     0.95400
N45         N  0.93262264  0.96137030  0.12006777    -0.06700
N46         N  0.90924402  0.95521056  0.09156361    -0.59300
N47         N  0.95544396  0.93815096  0.21809289    -0.04900
N48         N  0.94838941  0.91627451  0.24759805    -0.60500
N49         N  0.93315611  0.96134905  0.21783519    -0.06800
N50         N  0.91034706  0.95543137  0.24656879    -0.59500
N51         N  0.95503887  0.93830037  0.11898783    -0.04500
N52         N  0.94748381  0.91626319  0.08918786    -0.60600
Mn53       Mn  0.99438858  0.93639836  0.16858354     1.18400
C54         C  0.91886656  0.92718316  0.07233581     0.97700
C55         C  0.92022721  0.92746549  0.26517986     0.98400
N56         N  0.06035853  0.03592528  0.12166294    -0.06800
N57         N  0.08305127  0.04308080  0.09290257    -0.63100
N58         N  0.03756167  0.05823680  0.22014044    -0.05600
N59         N  0.04416094  0.08087751  0.24910054    -0.63800
N60         N  0.06010826  0.03534638  0.22084840    -0.06300
N61         N  0.08244210  0.04196963  0.25089554    -0.63400
N62         N  0.03775487  0.05876883  0.12261420    -0.05200
N63         N  0.04472932  0.08193048  0.09522750    -0.64100
Mn64       Mn  0.05973390  0.99671820  0.17050072     1.10700
C65         C  0.07281461  0.07188966  0.07664861     0.98900
C66         C  0.07196954  0.07046816  0.26831583     0.99000
N67         N  0.93594243  0.03937369  0.21975607    -0.06300
N68         N  0.91421902  0.04748395  0.24946756    -0.61700
N69         N  0.95987427  0.06091929  0.12184380    -0.05600
N70         N  0.95467693  0.08427956  0.09405298    -0.58400
N71         N  0.93576138  0.03945457  0.12042392    -0.06900
N72         N  0.91378107  0.04780629  0.09093016    -0.61300
N73         N  0.95996389  0.06091061  0.21924943    -0.05900
N74         N  0.95496058  0.08411046  0.24788168    -0.58400
Mn75       Mn  0.93351604  0.00039624  0.16950910     1.20200
Mn76       Mn  0.99879525  0.06003392  0.17091293     1.10100
Cl77       Cl  0.99659472  0.99829968  0.16978121    -0.86400
C78         C  0.92658030  0.07546424  0.26676933     0.95900
C79         C  0.92609412  0.07583819  0.07472546     0.95700
C80         C  0.90056605  0.14839046  0.00560932     0.86000
C81         C  0.91479661  0.13013904  0.04414694    -0.54200
C82         C  0.90963109  0.09715582  0.04320296     0.09000
C83         C  0.89021061  0.08516426  0.00335417     0.19900
C84         C  0.91543580  0.12929566  0.30072959    -0.54900
C85         C  0.91046610  0.09621994  0.29951543     0.09100
C86         C  0.86435982  0.13865051  0.00372672    -0.54400
C87         C  0.85851867  0.10593773  0.00252396     0.09600
H88         H  0.92886452  0.14225931  0.06937546     0.14200
H89         H  0.88593485  0.05843533  0.00242282    -0.00100
H90         H  0.92995770  0.14131674  0.27665377     0.14500
H91         H  0.84469511  0.15648746  0.00393049     0.14300
C92         C  0.09876293  0.85295017  0.00196960     0.86000
C93         C  0.08309950  0.86951637  0.04097439    -0.54200
C94         C  0.08586958  0.90272683  0.04156645     0.09000
C95         C  0.10469526  0.91661787  0.00301576     0.19900
C96         C  0.08026430  0.86831681  0.29703948    -0.54900
C97         C  0.08378132  0.90148501  0.29749893     0.09100
C98         C  0.13420438  0.86525669  0.00141537    -0.54400
C99         C  0.13752298  0.89815079  0.00191409     0.09600
H100        H  0.06996254  0.85611198  0.06532386     0.14200
H101        H  0.10719772  0.94357028  0.00340972    -0.00100
H102        H  0.06627896  0.85604275  0.27203306     0.14500
H103        H  0.15524556  0.84907842  0.99946537     0.14300
C104        C  0.10315921  0.14273000  0.00794441     0.86000
C105        C  0.08603539  0.12371104  0.30110532    -0.54200
C106        C  0.08987148  0.09060418  0.30049477     0.09000
C107        C  0.11028586  0.07911273  0.00687627     0.19900
C108        C  0.08762344  0.12544656  0.04616830    -0.54900
C109        C  0.09091684  0.09225058  0.04570841     0.09100
C110        C  0.13881742  0.13142424  0.00738574    -0.54400
C111        C  0.14293983  0.09857100  0.00719373     0.09600
H112        H  0.07187587  0.13656147  0.27702174     0.14200
H113        H  0.11324822  0.05223267  0.00645804    -0.00100
H114        H  0.07400545  0.13842197  0.07073222     0.14500
H115        H  0.15947711  0.14827907  0.00794576     0.14300
C116        C  0.04657600  0.56846065  0.03709097    -0.11300
C117        C  0.01782408  0.58647441  0.04060457    -0.05200
C118        C  0.98680393  0.57219168  0.03778152    -0.11300
C119        C  0.98416171  0.53792876  0.03237277     0.09700
C120        C  0.01338146  0.51892985  0.03023757    -0.03100
C121        C  0.04474908  0.53431938  0.03242604     0.09500
C122        C  0.07327084  0.51528407  0.03008695    -0.13100
C123        C  0.07123584  0.48150002  0.02576430    -0.13100
C124        C  0.04061286  0.46575472  0.02301320     0.09500
C125        C  0.01131193  0.48457411  0.02508415    -0.03100
C126        C  0.95354072  0.52213590  0.02925798    -0.13200
C127        C  0.95149529  0.48822213  0.02433224    -0.13200
C128        C  0.98001231  0.46905884  0.02214745     0.09700
C129        C  0.97848519  0.43476721  0.01675255    -0.11300
C130        C  0.00753293  0.41696229  0.01445564    -0.05200
C131        C  0.03830494  0.43163280  0.01787281    -0.11300
H132        H  0.09738146  0.52645045  0.03197042     0.06900
H133        H  0.09385367  0.46775322  0.02422615     0.06900
H134        H  0.93098159  0.53597506  0.03082175     0.07100
H135        H  0.92741135  0.47703995  0.02206695     0.07100
H136        H  0.01966147  0.61284842  0.04310228     0.03500
H137        H  0.00613757  0.39061933  0.01109010     0.03500
C138        C  0.06647105  0.40898717  0.01792561    -0.03800
C139        C  0.07645429  0.39540287  0.05696426    -0.09600
C140        C  0.09154282  0.36481226  0.05768177    -0.17200
C141        C  0.09688178  0.34767546  0.01935734     0.24900
C142        C  0.08987631  0.36257714  0.98021873    -0.18900
C143        C  0.07472925  0.39309558  0.97949389    -0.07800
C144        C  0.10403905  0.31328376  0.02017516    -0.14200
C145        C  0.10558565  0.28389567  0.01954023    -0.14000
C146        C  0.10410988  0.24877811  0.01707240     0.24800
C147        C  0.08727143  0.23352331  0.98315528    -0.19400
C148        C  0.08580863  0.19950184  0.98014069    -0.07900
C149        C  0.10122568  0.17994608  0.01125110    -0.03900
C150        C  0.11717794  0.19577561  0.04599769    -0.09200
C151        C  0.11877982  0.22978967  0.04873924    -0.16900
H152        H  0.06946061  0.40682752  0.08692764     0.11300
H153        H  0.09657788  0.35346582  0.08817781     0.10500
H154        H  0.09361587  0.34949810  0.95036645     0.10500
H155        H  0.06640677  0.40273217  0.94915704     0.11000
H156        H  0.07542435  0.24798447  0.95870959     0.11100
H157        H  0.12197239  0.17983066  0.27425494     0.11000
H158        H  0.12915194  0.18163158  0.07064586     0.11200
H159        H  0.13161948  0.24123828  0.07543343     0.10000
C160        C  0.07680970  0.58812456  0.03302981    -0.03800
C161        C  0.08595177  0.59748375  0.99166655    -0.08100
C162        C  0.09648292  0.62811316  0.30711880    -0.17200
C163        C  0.10599865  0.64909014  0.01990776     0.24900
C164        C  0.10100148  0.63801377  0.06159933    -0.18900
C165        C  0.08659999  0.60754335  0.06817541    -0.07800
C166        C  0.11047273  0.68343048  0.01289066    -0.14200
C167        C  0.10946131  0.71262361  0.00901289    -0.14000
C168        C  0.10557067  0.74745644  0.00708922     0.24800
C169        C  0.11820619  0.76711522  0.04004781    -0.19400
C170        C  0.11439077  0.80085100  0.03866406    -0.07900
C171        C  0.09816283  0.81579869  0.00401793    -0.03900
C172        C  0.08408574  0.79435287  0.30266400    -0.09200
C173        C  0.08760398  0.76045134  0.30377951    -0.16900
H174        H  0.07364788  0.58510077  0.28102894     0.11300
H175        H  0.09964569  0.63884694  0.27587871     0.10500
H176        H  0.10516781  0.65413710  0.08878621     0.10500
H177        H  0.07909378  0.60111369  0.10020004     0.11000
H178        H  0.13125285  0.75638712  0.06674178     0.11100
H179        H  0.12505961  0.81556069  0.06421082     0.11000
H180        H  0.07404821  0.80460913  0.27378311     0.11200
H181        H  0.07965425  0.74588719  0.27648121     0.10000
C182        C  0.90438747  0.18555155  0.00903467    -0.03800
C183        C  0.89362322  0.20175758  0.04645835    -0.09600
C184        C  0.89430563  0.23583656  0.04980559    -0.17200
C185        C  0.90534747  0.25457177  0.01558841     0.24900
C186        C  0.91632311  0.23754403  0.31594839    -0.18900
C187        C  0.91641841  0.20353308  0.31165628    -0.07800
C188        C  0.90590126  0.28981743  0.01843413    -0.14200
C189        C  0.90862283  0.31921008  0.01889283    -0.14000
C190        C  0.91650521  0.35360100  0.01742062     0.24800
C191        C  0.92456907  0.36774148  0.97823693    -0.19400
C192        C  0.94019024  0.39815916  0.97734783    -0.07900
C193        C  0.94816323  0.41470273  0.01568910    -0.03900
C194        C  0.93674013  0.40208141  0.05450194    -0.09200
C195        C  0.92109639  0.37160612  0.05538598    -0.16900
H196        H  0.88422287  0.18792199  0.07305654     0.11300
H197        H  0.88588392  0.24754933  0.07892787     0.10500
H198        H  0.92585769  0.25224222  0.29021754     0.10500
H199        H  0.92567668  0.19338353  0.28220513     0.11000
H200        H  0.90967635  0.35190684  0.28472207     0.11100
H201        H  0.93754359  0.40463279  0.27839370     0.11000
H202        H  0.94342643  0.41388195  0.08450449     0.11200
H203        H  0.91512767  0.36097099  0.08595910     0.10000
C204        C  0.91035564  0.82543228  0.99850142    -0.03800
C205        C  0.93129396  0.81573974  0.03192100    -0.09600
C206        C  0.93851046  0.78255252  0.03762084    -0.17200
C207        C  0.92507012  0.75883649  0.00975498     0.24900
C208        C  0.90586779  0.76872427  0.97495717    -0.18900
C209        C  0.90877227  0.80423724  0.30045902    -0.07800
C210        C  0.92937035  0.72432589  0.01754981    -0.14200
C211        C  0.93192308  0.69520810  0.02277516    -0.14000
C212        C  0.93671131  0.66046670  0.02800592     0.24800
C213        C  0.93847020  0.63984257  0.99203034    -0.19400
C214        C  0.94964440  0.60773076  0.99620870    -0.07900
C215        C  0.95939984  0.59592288  0.03639347    -0.03900
C216        C  0.95417723  0.61562777  0.07284713    -0.09200
C217        C  0.94308174  0.64772799  0.06865146    -0.16900
H218        H  0.94031006  0.83350289  0.05506823     0.11300
H219        H  0.95353515  0.77531339  0.06462635     0.10500
H220        H  0.91077276  0.75490393  0.27696954     0.10500
H221        H  0.89912828  0.81336243  0.27049593     0.11000
H222        H  0.93357468  0.64927368  0.96037020     0.11100
H223        H  0.95284880  0.59568075  0.28635793     0.11000
H224        H  0.96242408  0.60749623  0.10399152     0.11200
H225        H  0.94182492  0.66327937  0.09680740     0.10000
C226        C  0.40906018  0.04851093  0.03001528    -0.03800
C227        C  0.39295986  0.07292056  0.30815395    -0.09600
C228        C  0.36022520  0.08177345  0.31514824    -0.17200
C229        C  0.34530061  0.07509625  0.35438191     0.24900
C230        C  0.36053965  0.06214036  0.07165051    -0.18900
C231        C  0.39257286  0.04986991  0.06940679    -0.07800
C232        C  0.30981707  0.07566606  0.35741994    -0.14200
C233        C  0.28009216  0.07478777  0.35549415    -0.14000
C234        C  0.24493773  0.07584071  0.34815652     0.24800
C235        C  0.22265803  0.06785490  0.05316119    -0.19400
C236        C  0.18866144  0.07115328  0.04652452    -0.07900
C237        C  0.17664870  0.08522760  0.00877857    -0.03900
C238        C  0.19917789  0.09865043  0.30872313    -0.09200
C239        C  0.23291150  0.09431411  0.31418202    -0.16900
H240        H  0.40247328  0.07411801  0.27591752     0.11300
H241        H  0.34574843  0.09094473  0.28867485     0.10500
H242        H  0.34703567  0.05996771  0.10123451     0.10500
H243        H  0.40262778  0.03739536  0.09691177     0.11000
H244        H  0.23162871  0.05820115  0.08317381     0.11100
H245        H  0.17193788  0.06488386  0.07197551     0.11000
H246        H  0.19062131  0.11452954  0.28352803     0.11200
H247        H  0.24969894  0.10649938  0.29281508     0.10000
C248        C  0.17041819  0.91247151  0.99687393    -0.03800
C249        C  0.19221560  0.91232977  0.03183145    -0.09600
C250        C  0.22608474  0.91433160  0.02524202    -0.17200
C251        C  0.23846620  0.91615128  0.98361735     0.24900
C252        C  0.21671854  0.91832170  0.94880635    -0.18900
C253        C  0.17888701  0.92765160  0.29923663    -0.07800
C254        C  0.27337616  0.91383252  0.97687208    -0.14200
C255        C  0.30289854  0.91223441  0.97433204    -0.14000
C256        C  0.33823419  0.91415218  0.97586845     0.24800
C257        C  0.34768939  0.93794833  0.25968753    -0.19400
C258        C  0.38048415  0.94820060  0.25854887    -0.07900
C259        C  0.40302919  0.93609026  0.98741506    -0.03900
C260        C  0.38698460  0.91959600  0.02043339    -0.09200
C261        C  0.35465492  0.90871464  0.01468498    -0.16900
H262        H  0.18314120  0.90822854  0.06384133     0.11300
H263        H  0.24265825  0.91270092  0.05242512     0.10500
H264        H  0.21983753  0.94470745  0.26230622     0.10500
H265        H  0.16089270  0.93550839  0.27584356     0.11000
H266        H  0.33162766  0.94312673  0.23282087     0.11100
H267        H  0.38876205  0.96211926  0.23137799     0.11000
H268        H  0.39789097  0.91885923  0.05214110     0.11200
H269        H  0.34153581  0.89892865  0.04174962     0.10000
C270        C  0.58367317  0.92863615  0.97333964    -0.03800
C271        C  0.59957419  0.92205384  0.27644642    -0.09600
C272        C  0.63028316  0.90678275  0.27627699    -0.17200
C273        C  0.64320232  0.89375418  0.31407894     0.24900
C274        C  0.62589809  0.89500843  0.00557486    -0.18900
C275        C  0.59549595  0.91063123  0.00811991    -0.07800
C276        C  0.67802843  0.88707427  0.31720337    -0.14200
C277        C  0.70767818  0.88603307  0.32032514    -0.14000
C278        C  0.74310345  0.88816669  0.32428065     0.24800
C279        C  0.75697337  0.90873060  0.01531104    -0.19400
C280        C  0.79105516  0.91109424  0.02122473    -0.07900
C281        C  0.81263873  0.89761115  0.99077699    -0.03900
C282        C  0.79741333  0.88148184  0.29387398    -0.09200
C283        C  0.76320147  0.87857244  0.29032886    -0.16900
H284        H  0.59193144  0.93548339  0.24843594     0.11300
H285        H  0.64518647  0.90787006  0.24774119     0.10500
H286        H  0.63628710  0.88414937  0.03406716     0.10500
H287        H  0.58336614  0.91220670  0.03881231     0.11000
H288        H  0.74082252  0.91908186  0.03922237     0.11100
H289        H  0.79992453  0.92308147  0.04992391     0.11000
H290        H  0.81236592  0.87334022  0.26733795     0.11200
H291        H  0.75245247  0.86876207  0.26109086     0.10000
C292        C  0.59182867  0.04217867  0.01199581    -0.03800
C293        C  0.60630527  0.05537464  0.31503307    -0.09600
C294        C  0.63870776  0.06694362  0.31676923    -0.17200
C295        C  0.65807126  0.06194353  0.35339637     0.24900
C296        C  0.64166243  0.05378600  0.05323056    -0.18900
C297        C  0.60936242  0.04190014  0.05094337    -0.07800
C298        C  0.69314120  0.06729655  0.35195682    -0.14200
C299        C  0.72257618  0.07037649  0.34887478    -0.14000
C300        C  0.75736507  0.07558743  0.34304156     0.24800
C301        C  0.77926901  0.06443123  0.03543492    -0.19400
C302        C  0.81304859  0.07102762  0.03168256    -0.07900
C303        C  0.82421102  0.09340750  0.00130852    -0.03900
C304        C  0.80104082  0.10662503  0.31051054    -0.09200
C305        C  0.76774670  0.09912166  0.31408560    -0.16900
H306        H  0.59296217  0.05624192  0.28494001     0.11300
H307        H  0.64938396  0.07754248  0.28844704     0.10500
H308        H  0.65562999  0.05098477  0.08260351     0.10500
H309        H  0.59947420  0.02911203  0.07815748     0.11000
H310        H  0.77091682  0.04797730  0.05998237     0.11100
H311        H  0.83019601  0.06004762  0.05388220     0.11000
H312        H  0.80830958  0.12567514  0.28876390     0.11200
H313        H  0.74998986  0.11240189  0.29511026     0.10000
C314        C  0.56711529  0.96250218  0.71620764    -0.11300
C315        C  0.58568946  0.99101351  0.71620418    -0.05200
C316        C  0.56856927  0.01263692  0.34079781    -0.11300
C317        C  0.53420895  0.01698421  0.33711048     0.09700
C318        C  0.51727048  0.99546050  0.71257523    -0.03100
C319        C  0.53254234  0.96433674  0.71420331     0.09500
C320        C  0.51295094  0.93610903  0.71380792    -0.13100
C321        C  0.47876759  0.93823049  0.71224953    -0.13100
C322        C  0.46315991  0.96864198  0.71131098     0.09500
C323        C  0.47959581  0.99393285  0.32071566    -0.03100
C324        C  0.51941414  0.04723200  0.34564006    -0.13200
C325        C  0.48532445  0.05097396  0.34255758    -0.13200
C326        C  0.46508031  0.02476916  0.32993558     0.09700
C327        C  0.43062430  0.02820673  0.32587700    -0.11300
C328        C  0.41183676  0.00182912  0.31159502    -0.05200
C329        C  0.42862621  0.97113809  0.71033064    -0.11300
H330        H  0.52399612  0.91217469  0.71490938     0.06900
H331        H  0.46455611  0.91588532  0.71216495     0.06900
H332        H  0.53416153  0.06811040  0.35517059     0.07100
H333        H  0.47487281  0.07463135  0.34959650     0.07100
H334        H  0.61231934  0.98918749  0.71654459     0.03500
H335        H  0.38531942  0.00456677  0.30942653     0.03500
C336        C  0.85004967  0.89472260  0.33452811     0.86000
C337        C  0.86625830  0.91119854  0.37410406    -0.54200
C338        C  0.89985288  0.90950988  0.37486116     0.09000
C339        C  0.91444491  0.89122493  0.33600150     0.19900
C340        C  0.86608006  0.91247129  0.63267489    -0.54900
C341        C  0.89970105  0.91037827  0.63165325     0.09100
C342        C  0.86350969  0.85998366  0.33408174    -0.54400
C343        C  0.89683365  0.85780584  0.33493637     0.09600
H344        H  0.85306666  0.92440273  0.39867387     0.14200
H345        H  0.94167962  0.88975386  0.33655977    -0.00100
H346        H  0.85254203  0.92552469  0.60837814     0.14500
H347        H  0.84774314  0.83855746  0.33353923     0.14300
N348        N  0.05813844  0.95764881  0.55433508    -0.06600
N349        N  0.08027336  0.94993294  0.58380978    -0.58700
N350        N  0.03377538  0.93548782  0.45596424    -0.06200
N351        N  0.03876858  0.91254804  0.42693055    -0.60800
N352        N  0.05768171  0.95720793  0.45534562    -0.05800
N353        N  0.07918168  0.94955863  0.42525260    -0.58700
N354        N  0.03423102  0.93590221  0.55345153    -0.05500
N355        N  0.03987321  0.91287521  0.58167583    -0.61200
C356        C  0.06844225  0.92198782  0.60060951     0.95600
C357        C  0.06694048  0.92166726  0.40779425     0.95400
N358        N  0.93327137  0.96121386  0.45566403    -0.06700
N359        N  0.91003439  0.95509138  0.42694641    -0.59300
N360        N  0.95579221  0.93866646  0.55391557    -0.04900
N361        N  0.94805377  0.91660662  0.58282688    -0.60500
N362        N  0.93356939  0.96191564  0.55321803    -0.06800
N363        N  0.91011480  0.95586497  0.58102624    -0.59500
N364        N  0.95555642  0.93802891  0.45496096    -0.04500
N365        N  0.94808514  0.91594116  0.42519544    -0.60600
Mn366      Mn  0.99486264  0.93633458  0.50462007     1.18400
C367        C  0.91966027  0.92697238  0.40793024     0.97700
C368        C  0.91952823  0.92770445  0.59946469     0.98400
N369        N  0.06138489  0.03501888  0.45544881    -0.06800
N370        N  0.08383855  0.04181608  0.42618969    -0.63100
N371        N  0.03930267  0.05875056  0.55372913    -0.05600
N372        N  0.04627522  0.08196004  0.58181347    -0.63800
N373        N  0.06175455  0.03576255  0.55481245    -0.06300
N374        N  0.08437338  0.04292186  0.58434260    -0.63400
N375        N  0.03880515  0.05788054  0.45622911    -0.05200
N376        N  0.04549752  0.08065160  0.42822138    -0.64100
Mn377      Mn  0.06075224  0.99629236  0.50503666     1.10700
C378        C  0.07340524  0.07039873  0.40941688     0.98900
C379        C  0.07421803  0.07185261  0.60097838     0.99000
N380        N  0.93745345  0.03983110  0.55428729    -0.06300
N381        N  0.91590126  0.04837330  0.58398829    -0.61700
N382        N  0.96111164  0.06028701  0.45596051    -0.05600
N383        N  0.95594337  0.08321148  0.42755290    -0.58400
N384        N  0.93693877  0.03890213  0.45510316    -0.06900
N385        N  0.91494529  0.04681329  0.42546807    -0.61300
N386        N  0.96169875  0.06111517  0.55339734    -0.05900
N387        N  0.95706865  0.08451746  0.58179315    -0.58400
Mn388      Mn  0.93447735  0.00052971  0.50461356     1.20200
Mn389      Mn  0.00020395  0.05983741  0.50480934     1.10100
Cl390      Cl  0.99759136  0.99819939  0.50482860    -0.86400
C391        C  0.92867187  0.07629081  0.60090147     0.95900
C392        C  0.92732045  0.07449507  0.40850472     0.95700
C393        C  0.90037900  0.14659655  0.34001885     0.86000
C394        C  0.91539805  0.12846123  0.37799682    -0.54200
C395        C  0.91054888  0.09549624  0.37706661     0.09000
C396        C  0.89061107  0.08330693  0.33775103     0.19900
C397        C  0.91859016  0.13064740  0.63303519    -0.54900
C398        C  0.91266619  0.09780495  0.63268535     0.09100
C399        C  0.86427534  0.13649021  0.33903665    -0.54400
C400        C  0.85874588  0.10372748  0.33765828     0.09600
H401        H  0.92960203  0.14070833  0.40299810     0.14200
H402        H  0.88663481  0.05653302  0.33684985    -0.00100
H403        H  0.93361356  0.14251369  0.60915670     0.14500
H404        H  0.84447379  0.15416583  0.33976729     0.14300
C405        C  0.09596159  0.85126577  0.33585829     0.86000
C406        C  0.07991928  0.86822219  0.37436336    -0.54200
C407        C  0.08340529  0.90141652  0.37501403     0.09000
C408        C  0.10288845  0.91486963  0.33669629     0.19900
C409        C  0.08256511  0.86857192  0.63282748    -0.54900
C410        C  0.08570297  0.90184945  0.63260492     0.09100
C411        C  0.13159051  0.86301277  0.33653516    -0.54400
C412        C  0.13554250  0.89591195  0.33698404     0.09600
H413        H  0.06646092  0.85507666  0.39865485     0.14200
H414        H  0.10577354  0.94178392  0.33706544    -0.00100
H415        H  0.06808148  0.85575512  0.60877892     0.14500
H416        H  0.15230929  0.84638148  0.33581301     0.14300
C417        C  0.10218500  0.14112939  0.33942479     0.86000
C418        C  0.08872781  0.12550426  0.63341685    -0.54200
C419        C  0.09221710  0.09227218  0.63299829     0.09000
C420        C  0.11019321  0.07762484  0.33879542     0.19900
C421        C  0.08734958  0.12381596  0.37831668    -0.54900
C422        C  0.09121718  0.09066877  0.37805718     0.09100
C423        C  0.13792464  0.13035524  0.33880716    -0.54400
C424        C  0.14263786  0.09754036  0.33822319     0.09600
H425        H  0.07427077  0.13784021  0.60929594     0.14200
H426        H  0.11347291  0.05078363  0.33839144    -0.00100
H427        H  0.07324614  0.13588666  0.40299709     0.14500
H428        H  0.15820612  0.14765511  0.33902304     0.14300
C429        C  0.04290001  0.56556358  0.35254897    -0.11300
C430        C  0.01438753  0.58394783  0.35611448    -0.05200
C431        C  0.98324026  0.56988330  0.35520591    -0.11300
C432        C  0.98017026  0.53556958  0.35173030     0.09700
C433        C  0.00913054  0.51628189  0.34857775    -0.03100
C434        C  0.04066747  0.53139362  0.34864085     0.09500
C435        C  0.06889773  0.51205728  0.34500068    -0.13100
C436        C  0.06640097  0.47825750  0.34142308    -0.13100
C437        C  0.03559462  0.46276365  0.34137829     0.09500
C438        C  0.00660245  0.48187285  0.34504315    -0.03100
C439        C  0.94936872  0.52001990  0.35156980    -0.13200
C440        C  0.94691066  0.48602791  0.34888175    -0.13200
C441        C  0.97516208  0.46658306  0.34560910     0.09700
C442        C  0.97319707  0.43219564  0.34268208    -0.11300
C443        C  0.00189788  0.41405930  0.33829285    -0.05200
C444        C  0.03281309  0.42858317  0.33783546    -0.11300
H445        H  0.09313365  0.52300595  0.34504230     0.06900
H446        H  0.08880733  0.46428133  0.33869803     0.06900
H447        H  0.92700737  0.53410614  0.35393959     0.07100
H448        H  0.92271174  0.47500848  0.34912393     0.07100
H449        H  0.01649651  0.61032219  0.35821139     0.03500
H450        H  0.00018328  0.38766344  0.33636458     0.03500
C451        C  0.06083701  0.40588999  0.33565074    -0.03800
C452        C  0.07131364  0.39079002  0.37344501    -0.09600
C453        C  0.08726721  0.36070678  0.37163856    -0.17200
C454        C  0.09291034  0.34552172  0.33203478     0.24900
C455        C  0.08513563  0.36187860  0.29417007    -0.18900
C456        C  0.06910776  0.39195692  0.29596807    -0.07800
C457        C  0.10108397  0.31140281  0.33056027    -0.14200
C458        C  0.10328376  0.28208873  0.33072725    -0.14000
C459        C  0.10232919  0.24701937  0.33271534     0.24800
C460        C  0.11362483  0.22800853  0.29855512    -0.19400
C461        C  0.11243261  0.19401538  0.30077977    -0.07900
C462        C  0.09986178  0.17826945  0.33718064    -0.03900
C463        C  0.08806383  0.19784414  0.37108397    -0.09200
C464        C  0.08928701  0.23184377  0.36872635    -0.16900
H465        H  0.06427863  0.40069636  0.40429713     0.11300
H466        H  0.09281743  0.34815718  0.40114766     0.10500
H467        H  0.08906083  0.35024974  0.26335707     0.10500
H468        H  0.06038466  0.40279680  0.26655340     0.11000
H469        H  0.12357964  0.23942254  0.27033772     0.11100
H470        H  0.09109314  0.18844595  0.60779445     0.11000
H471        H  0.07860613  0.18752438  0.40007897     0.11200
H472        H  0.08028849  0.24635037  0.39529967     0.10000
C473        C  0.07349635  0.58482692  0.35017648    -0.03800
C474        C  0.08213589  0.59720715  0.31005386    -0.08100
C475        C  0.10598262  0.63141041  0.64022518    -0.17200
C476        C  0.10271145  0.64651995  0.34431541     0.24900
C477        C  0.09832275  0.63233523  0.38444489    -0.18900
C478        C  0.08394058  0.60147564  0.38737932    -0.07800
C479        C  0.10706040  0.68129365  0.34154453    -0.14200
C480        C  0.10596635  0.71065588  0.34018301    -0.14000
C481        C  0.10187826  0.74554229  0.33940641     0.24800
C482        C  0.11171893  0.76462142  0.37453800    -0.19400
C483        C  0.10820054  0.79846606  0.37356862    -0.07900
C484        C  0.09474487  0.81404319  0.33743477    -0.03900
C485        C  0.08943709  0.79453601  0.63962805    -0.09200
C486        C  0.09402662  0.76078394  0.64166908    -0.16900
H487        H  0.08526593  0.59070070  0.60582885     0.11300
H488        H  0.11439277  0.64298975  0.61127259     0.10500
H489        H  0.10291146  0.64635496  0.41345757     0.10500
H490        H  0.07684470  0.59269301  0.41856752     0.11000
H491        H  0.12256150  0.75339150  0.40248435     0.11100
H492        H  0.11696635  0.81274499  0.40070405     0.11000
H493        H  0.07903032  0.80417422  0.61058989     0.11200
H494        H  0.08633337  0.74555750  0.61486625     0.10000
C495        C  0.90373049  0.18369588  0.34427711    -0.03800
C496        C  0.89144090  0.19918601  0.38141040    -0.09600
C497        C  0.89144539  0.23317325  0.38561792    -0.17200
C498        C  0.90357682  0.25250926  0.35268418     0.24900
C499        C  0.89707562  0.23585360  0.62740470    -0.18900
C500        C  0.89698578  0.20190357  0.63020287    -0.07800
C501        C  0.90303986  0.28766640  0.35617995    -0.14200
C502        C  0.90479271  0.31709402  0.35658961    -0.14000
C503        C  0.91173730  0.35156324  0.35381986     0.24800
C504        C  0.91573830  0.36563764  0.31352709    -0.19400
C505        C  0.93115521  0.39599444  0.30991283    -0.07900
C506        C  0.94287311  0.41251267  0.34658666    -0.03900
C507        C  0.93528477  0.40007250  0.38709215    -0.09200
C508        C  0.91994147  0.36962318  0.39070294    -0.16900
H509        H  0.88122260  0.18482540  0.40700512     0.11300
H510        H  0.88160979  0.24433740  0.41432969     0.10500
H511        H  0.88870735  0.24721516  0.59815465     0.10500
H512        H  0.88803638  0.18776259  0.60305865     0.11000
H513        H  0.92651361  0.35269353  0.58791658     0.11100
H514        H  0.95444577  0.40567116  0.58910915     0.11000
H515        H  0.94488796  0.41191470  0.41571672     0.11200
H516        H  0.91715647  0.35901144  0.42207610     0.10000
C517        C  0.91260999  0.82532740  0.33585094    -0.03800
C518        C  0.92428766  0.81270839  0.37468710    -0.09600
C519        C  0.93035283  0.77918815  0.37860464    -0.17200
C520        C  0.92486958  0.75799266  0.34369082     0.24900
C521        C  0.91504402  0.77087125  0.30428217    -0.18900
C522        C  0.93004394  0.81447477  0.63449671    -0.07800
C523        C  0.92741201  0.72298169  0.34856822    -0.14200
C524        C  0.92910277  0.69358761  0.35125711    -0.14000
C525        C  0.93342867  0.65857218  0.35302765     0.24800
C526        C  0.93624802  0.64032886  0.31506304    -0.19400
C527        C  0.94732148  0.60805240  0.31622371    -0.07900
C528        C  0.95594874  0.59368746  0.35535814    -0.03900
C529        C  0.94979232  0.61098778  0.39354287    -0.09200
C530        C  0.93867486  0.64325970  0.39237797    -0.16900
H531        H  0.92659821  0.82839469  0.40264240     0.11300
H532        H  0.93796335  0.76964833  0.40930117     0.10500
H533        H  0.94911130  0.77236574  0.60137970     0.10500
H534        H  0.93681718  0.83102795  0.60924880     0.11000
H535        H  0.93231930  0.65178026  0.28437015     0.11100
H536        H  0.96738341  0.60233364  0.58348940     0.11000
H537        H  0.95722958  0.60087058  0.42398482     0.11200
H538        H  0.93662605  0.65698199  0.42203113     0.10000
C539        C  0.41080679  0.05649032  0.34000978    -0.03800
C540        C  0.39939274  0.06712559  0.66529361    -0.09600
C541        C  0.36667229  0.07702852  0.66059457    -0.17200
C542        C  0.34676058  0.08079172  0.69668853     0.24900
C543        C  0.36455508  0.06351066  0.38828469    -0.18900
C544        C  0.39735151  0.05470458  0.38128294    -0.07800
C545        C  0.31140004  0.08201980  0.69182546    -0.14200
C546        C  0.28184348  0.08062891  0.68747245    -0.14000
C547        C  0.24655634  0.07949395  0.68143307     0.24800
C548        C  0.22267427  0.05995031  0.37516716    -0.19400
C549        C  0.18861231  0.06432233  0.36968836    -0.07900
C550        C  0.17670328  0.08470785  0.33727971    -0.03900
C551        C  0.19871505  0.09291687  0.63843279    -0.09200
C552        C  0.23278106  0.08988207  0.64274983    -0.16900
H553        H  0.41290248  0.06008403  0.63694646     0.11300
H554        H  0.35614701  0.07877400  0.62875385     0.10500
H555        H  0.35348047  0.05844704  0.41893361     0.10500
H556        H  0.41033988  0.04172332  0.40619498     0.11000
H557        H  0.23162364  0.04533946  0.40142895     0.11100
H558        H  0.17182116  0.05369353  0.39240057     0.11000
H559        H  0.18868257  0.10319392  0.60935252     0.11200
H560        H  0.24843650  0.09718651  0.61662692     0.10000
C561        C  0.16897741  0.90999311  0.33516126    -0.03800
C562        C  0.19285954  0.89935800  0.36452289    -0.09600
C563        C  0.22621178  0.90435251  0.35670621    -0.17200
C564        C  0.23618580  0.91990583  0.31933436     0.24900
C565        C  0.21243331  0.93249027  0.29126163    -0.18900
C566        C  0.19384796  0.90112740  0.63586704    -0.07800
C567        C  0.27070136  0.92111012  0.30905769    -0.14200
C568        C  0.29990406  0.92143988  0.30232175    -0.14000
C569        C  0.33500080  0.92435646  0.29702653     0.24800
C570        C  0.36000800  0.92620262  0.66041012    -0.19400
C571        C  0.39261688  0.93645529  0.66556448    -0.07900
C572        C  0.40075718  0.94538585  0.29500049    -0.03900
C573        C  0.38894880  0.92823477  0.33040661    -0.09200
C574        C  0.35615113  0.91789762  0.33148662    -0.16900
H575        H  0.18570596  0.88540211  0.39220413     0.11300
H576        H  0.24425508  0.89470038  0.37882004     0.10500
H577        H  0.24407716  0.89600680  0.61666222     0.10500
H578        H  0.18471749  0.88751394  0.60834462     0.11000
H579        H  0.34977129  0.92374902  0.62842503     0.11100
H580        H  0.40654276  0.94284173  0.63743470     0.11000
H581        H  0.40377198  0.92656641  0.35923652     0.11200
H582        H  0.34665087  0.90740465  0.36058217     0.10000
C583        C  0.58164110  0.92478585  0.31457531    -0.03800
C584        C  0.59583383  0.92051453  0.67377577    -0.09600
C585        C  0.62554506  0.90391721  0.66892583    -0.17200
C586        C  0.64580807  0.89855175  0.70456998     0.24900
C587        C  0.62357576  0.89277388  0.35071928    -0.18900
C588        C  0.59284030  0.90805870  0.35088833    -0.07800
C589        C  0.67997729  0.89086703  0.69843119    -0.14200
C590        C  0.70928436  0.88938878  0.69315831    -0.14000
C591        C  0.74434935  0.89114586  0.68726022     0.24800
C592        C  0.75755776  0.90090808  0.36168928    -0.19400
C593        C  0.79179066  0.90392675  0.36531467    -0.07900
C594        C  0.81240873  0.89434097  0.33131774    -0.03900
C595        C  0.79146903  0.91074963  0.64745532    -0.09200
C596        C  0.75739831  0.90841660  0.65284789    -0.16900
H597        H  0.58234489  0.92776769  0.64543295     0.11300
H598        H  0.63404961  0.89798239  0.63701943     0.10500
H599        H  0.63323389  0.88291457  0.38025910     0.10500
H600        H  0.57991597  0.91055405  0.38091759     0.11000
H601        H  0.74232140  0.90845529  0.38826310     0.11100
H602        H  0.80156374  0.91307752  0.39526183     0.11000
H603        H  0.80030339  0.92409267  0.62030896     0.11200
H604        H  0.74118982  0.92008746  0.63006366     0.10000
C605        C  0.59304271  0.03858134  0.34985820    -0.03800
C606        C  0.60579625  0.05452687  0.66496391    -0.09600
C607        C  0.63779695  0.06572452  0.65781330    -0.17200
C608        C  0.65918643  0.07141138  0.69244241     0.24900
C609        C  0.64387601  0.04817809  0.38968706    -0.18900
C610        C  0.61148843  0.03667939  0.38799612    -0.07800
C611        C  0.69389262  0.07596691  0.68517416    -0.14200
C612        C  0.72314279  0.07817300  0.67939230    -0.14000
C613        C  0.75797643  0.08215968  0.67260537     0.24800
C614        C  0.78081650  0.05833217  0.36691033    -0.19400
C615        C  0.81439338  0.06582182  0.36326544    -0.07900
C616        C  0.82463233  0.09080074  0.33598154    -0.03900
C617        C  0.80240397  0.11287884  0.64133698    -0.09200
C618        C  0.76890585  0.10628173  0.64486427    -0.16900
H619        H  0.59088911  0.04683312  0.63780325     0.11300
H620        H  0.64658529  0.06755485  0.62528033     0.10500
H621        H  0.65854707  0.04411206  0.41819597     0.10500
H622        H  0.60214037  0.02296168  0.41474837     0.11000
H623        H  0.77309731  0.03986487  0.38924771     0.11100
H624        H  0.83206543  0.05341690  0.38334205     0.11000
H625        H  0.81008352  0.13231578  0.62044175     0.11200
H626        H  0.75146167  0.12074251  0.62694045     0.10000
C627        C  0.56419429  0.95805659  0.98282704    -0.11300
C628        C  0.58253695  0.98616045  0.99074766    -0.05200
C629        C  0.57136865  0.02164794  0.71286057    -0.11300
C630        C  0.53673515  0.02433260  0.71143474     0.09700
C631        C  0.51435748  0.98847828  0.99970068    -0.03100
C632        C  0.52975957  0.95886506  0.98699919     0.09500
C633        C  0.51042713  0.93111300  0.97856175    -0.13100
C634        C  0.47635067  0.93225058  0.98233916    -0.13100
C635        C  0.46062237  0.96106776  0.99515673     0.09500
C636        C  0.48251225  0.99763867  0.71137933    -0.03100
C637        C  0.52107284  0.05473365  0.70904400    -0.13200
C638        C  0.48676388  0.05691715  0.70843405    -0.13200
C639        C  0.46712084  0.02874725  0.70976408     0.09700
C640        C  0.43241002  0.03036820  0.70949134    -0.11300
C641        C  0.41411454  0.00168830  0.71020950    -0.05200
C642        C  0.42621497  0.96241699  0.99941010    -0.11300
H643        H  0.52158018  0.90836984  0.96867783     0.06900
H644        H  0.46234956  0.91032432  0.97542073     0.06900
H645        H  0.53532766  0.07702645  0.70811128     0.07100
H646        H  0.47563923  0.08080385  0.70699585     0.07100
H647        H  0.60910238  0.98505334  0.98786032     0.03500
H648        H  0.38745409  0.00317528  0.70916216     0.03500
C649        C  0.85045485  0.89586877  0.67184247     0.86000
C650        C  0.86791256  0.91213362  0.71007505    -0.54200
C651        C  0.90136495  0.91033696  0.70893193     0.09000
C652        C  0.91470505  0.89169364  0.66960536     0.19900
C653        C  0.86790774  0.91344235  0.95968264    -0.54900
C654        C  0.90132815  0.91101718  0.96152428     0.09100
C655        C  0.86352055  0.86102046  0.67040973    -0.54400
C656        C  0.89679326  0.85847891  0.66966932     0.09600
H657        H  0.85483578  0.92494509  0.73529542     0.14200
H658        H  0.94191979  0.88999994  0.66891842    -0.00100
H659        H  0.85514371  0.92678258  0.93476279     0.14500
H660        H  0.84752340  0.83976174  0.67035918     0.14300
N661        N  0.05919742  0.95959422  0.88640303    -0.06600
N662        N  0.08098627  0.95165837  0.91619257    -0.58700
N663        N  0.03598082  0.93757287  0.78784104    -0.06200
N664        N  0.04194571  0.91411195  0.75986798    -0.60800
N665        N  0.05974534  0.95943973  0.78763244    -0.05800
N666        N  0.08212678  0.95139501  0.75882936    -0.58700
N667        N  0.03532834  0.93787110  0.88487266    -0.05500
N668        N  0.04049432  0.91468315  0.91288183    -0.61200
C669        C  0.06880888  0.92361353  0.93236627     0.95600
C670        C  0.07056829  0.92308381  0.74176277     0.95400
N671        N  0.93543358  0.96320466  0.78713503    -0.06700
N672        N  0.91204766  0.95669047  0.75888887    -0.59300
N673        N  0.95775388  0.94017054  0.88503065    -0.04900
N674        N  0.95034471  0.91799638  0.91396414    -0.60500
N675        N  0.93548027  0.96335538  0.88462635    -0.06800
N676        N  0.91234238  0.95719234  0.91274119    -0.59500
N677        N  0.95786363  0.94016056  0.78639303    -0.04500
N678        N  0.95034722  0.91774864  0.75714810    -0.60600
Mn679      Mn  0.99669712  0.93833593  0.83594250     1.18400
C680        C  0.92178145  0.92851914  0.74019919     0.97700
C681        C  0.92201472  0.92907216  0.93109047     0.98400
N682        N  0.06210257  0.03731594  0.78828456    -0.06800
N683        N  0.08444525  0.04398374  0.75887814    -0.63100
N684        N  0.03934163  0.06028512  0.88669413    -0.05600
N685        N  0.04567353  0.08288313  0.91581423    -0.63800
N686        N  0.06193106  0.03742546  0.88757607    -0.06300
N687        N  0.08400069  0.04403400  0.91796528    -0.63400
N688        N  0.03948969  0.06017602  0.78908692    -0.05200
N689        N  0.04611814  0.08284684  0.76088119    -0.64100
Mn690      Mn  0.06179348  0.99844855  0.83748615     1.10700
C691        C  0.07398132  0.07248666  0.74201373     0.98900
C692        C  0.07334832  0.07248898  0.93534477     0.99000
N693        N  0.93768085  0.04113196  0.88643006    -0.06300
N694        N  0.91572025  0.04902929  0.91593191    -0.61700
N695        N  0.96157739  0.06272156  0.78851767    -0.05600
N696        N  0.95608438  0.08610921  0.76085498    -0.58400
N697        N  0.93759340  0.04113471  0.78721030    -0.06900
N698        N  0.91539398  0.04940212  0.75796108    -0.61300
N699        N  0.96154817  0.06283899  0.88607390    -0.05900
N700        N  0.95616889  0.08598288  0.91470197    -0.58400
Mn701      Mn  0.93572329  0.00219539  0.83631094     1.20200
Mn702      Mn  0.00055566  0.06191998  0.83756159     1.10100
Cl703      Cl  0.99870071  0.00021892  0.83675416    -0.86400
C704        C  0.92773044  0.07707274  0.93339175     0.95900
C705        C  0.92742915  0.07754049  0.74176383     0.95700
C706        C  0.90302893  0.14920925  0.67055909     0.86000
C707        C  0.91649926  0.13157415  0.71021317    -0.54200
C708        C  0.91078107  0.09865206  0.71013696     0.09000
C709        C  0.89143546  0.08624468  0.67040329     0.19900
C710        C  0.91616992  0.13082189  0.96696813    -0.54900
C711        C  0.91095741  0.09783459  0.96565721     0.09100
C712        C  0.86670351  0.14015793  0.66874925    -0.54400
C713        C  0.86016552  0.10757647  0.66820888     0.09600
H714        H  0.93121487  0.14318310  0.73504306     0.14200
H715        H  0.88673794  0.05958529  0.67017084    -0.00100
H716        H  0.93153791  0.14262330  0.94358779     0.14500
H717        H  0.84751910  0.15848796  0.66828791     0.14300
C718        C  0.09988817  0.85216317  0.67103611     0.86000
C719        C  0.08489235  0.86933962  0.71015196    -0.54200
C720        C  0.08782770  0.90255732  0.70999842     0.09000
C721        C  0.10595145  0.91581402  0.67057873     0.19900
C722        C  0.08219812  0.86985433  0.96358821    -0.54900
C723        C  0.08535001  0.90310993  0.96426852     0.09100
C724        C  0.13527176  0.86433082  0.66917965    -0.54400
C725        C  0.13879696  0.89722609  0.66895485     0.09600
H726        H  0.07201444  0.85633663  0.73509993     0.14200
H727        H  0.10851792  0.94275487  0.67042583    -0.00100
H728        H  0.06851524  0.85742589  0.93843743     0.14500
H729        H  0.15621591  0.84797017  0.66851719     0.14300
C730        C  0.10439622  0.14280027  0.67259260     0.86000
C731        C  0.08732791  0.12561936  0.96880195    -0.54200
C732        C  0.09081165  0.09244528  0.96814920     0.09000
C733        C  0.11154165  0.07920700  0.67203448     0.19900
C734        C  0.08835821  0.12564485  0.71056594    -0.54900
C735        C  0.09187810  0.09250973  0.71056481     0.09100
C736        C  0.14002896  0.13160278  0.67297445    -0.54400
C737        C  0.14416633  0.09873949  0.67258431     0.09600
H738        H  0.07360311  0.13787179  0.94399156     0.14200
H739        H  0.11456541  0.05233493  0.67186244    -0.00100
H740        H  0.07435157  0.13862333  0.73474519     0.14500
H741        H  0.16062965  0.14852800  0.67357986     0.14300
C742        C  0.04460398  0.56861786  0.66718031    -0.11300
C743        C  0.01615317  0.58670952  0.66104963    -0.05200
C744        C  0.98537422  0.57215411  0.65637813    -0.11300
C745        C  0.98261379  0.53781762  0.65807871     0.09700
C746        C  0.01157599  0.51886219  0.66373129    -0.03100
C747        C  0.04275818  0.53434775  0.66819446     0.09500
C748        C  0.07102673  0.51527630  0.67359908    -0.13100
C749        C  0.06886897  0.48138520  0.67496528    -0.13100
C750        C  0.03837536  0.46553254  0.67096595     0.09500
C751        C  0.00938834  0.48439887  0.66511307    -0.03100
C752        C  0.95209863  0.52194639  0.65418501    -0.13200
C753        C  0.94994850  0.48795885  0.65543799    -0.13200
C754        C  0.97824234  0.46883514  0.66072777     0.09700
C755        C  0.97657768  0.43447139  0.66175737    -0.11300
C756        C  0.00516818  0.41651532  0.66807579    -0.05200
C757        C  0.03580144  0.43126727  0.67295914    -0.11300
H758        H  0.09502967  0.52651208  0.67685387     0.06900
H759        H  0.09126924  0.46762426  0.67928714     0.06900
H760        H  0.92972256  0.53577509  0.65001804     0.07100
H761        H  0.92596120  0.47668654  0.65222640     0.07100
H762        H  0.01800594  0.61311773  0.66036483     0.03500
H763        H  0.00351491  0.39011128  0.66916643     0.03500
C764        C  0.06354100  0.40869768  0.68002332    -0.03800
C765        C  0.06530816  0.39221121  0.71916182    -0.09600
C766        C  0.08064173  0.36184627  0.72162291    -0.17200
C767        C  0.09448443  0.34770400  0.68502003     0.24900
C768        C  0.09553019  0.36545623  0.64694204    -0.18900
C769        C  0.08010372  0.39584746  0.64443799    -0.07800
C770        C  0.10248900  0.31344491  0.68473575    -0.14200
C771        C  0.10499744  0.28410980  0.68334978    -0.14000
C772        C  0.10481771  0.24893790  0.68049494     0.24800
C773        C  0.09703730  0.23335574  0.64165015    -0.19400
C774        C  0.09599558  0.19928672  0.63880375    -0.07900
C775        C  0.10246205  0.18002521  0.67504041    -0.03900
C776        C  0.11089130  0.19613802  0.71376124    -0.09200
C777        C  0.11166518  0.23018914  0.71657665    -0.16900
H778        H  0.05190269  0.40126691  0.74661332     0.11300
H779        H  0.07939485  0.34832412  0.75116802     0.10500
H780        H  0.10593688  0.35471546  0.61830273     0.10500
H781        H  0.07823626  0.40770957  0.61371216     0.11000
H782        H  0.09195491  0.24757998  0.61335547     0.11100
H783        H  0.07284864  0.18918506  0.95303663     0.11000
H784        H  0.11716587  0.18227683  0.74194468     0.11200
H785        H  0.11783402  0.24186399  0.74684719     0.10000
C786        C  0.07485878  0.58801643  0.67341221    -0.03800
C787        C  0.08973418  0.60139422  0.63718478    -0.08100
C788        C  0.10027666  0.62803322  0.98508398    -0.17200
C789        C  0.10751766  0.64811497  0.67951332     0.24900
C790        C  0.09617851  0.63297129  0.71656874    -0.18900
C791        C  0.08001077  0.60293050  0.71355568    -0.07800
C792        C  0.11378030  0.68267231  0.68019875    -0.14200
C793        C  0.11338605  0.71205950  0.67949119    -0.14000
C794        C  0.10888923  0.74684866  0.67762222     0.24800
C795        C  0.11847306  0.76674294  0.71206059    -0.19400
C796        C  0.11394560  0.80043095  0.71014081    -0.07900
C797        C  0.09960628  0.81500613  0.67379659    -0.03900
C798        C  0.08463674  0.79559756  0.97153533    -0.09200
C799        C  0.08830939  0.76170272  0.97320346    -0.16900
H800        H  0.07795074  0.58322403  0.96411993     0.11300
H801        H  0.10388119  0.63638313  0.95266902     0.10500
H802        H  0.09692131  0.64576268  0.74706754     0.10500
H803        H  0.06795561  0.59343704  0.74161913     0.11000
H804        H  0.12980014  0.75628522  0.74021641     0.11100
H805        H  0.12256065  0.81538671  0.73671342     0.11000
H806        H  0.07180624  0.80543077  0.94430556     0.11200
H807        H  0.07796667  0.74662334  0.94779444     0.10000
C808        C  0.90733685  0.18617889  0.66790886    -0.03800
C809        C  0.91822964  0.20574439  0.70267086    -0.09600
C810        C  0.91821672  0.23979417  0.69976002    -0.17200
C811        C  0.90728736  0.25493527  0.66233349     0.24900
C812        C  0.91612050  0.23888894  0.97829457    -0.18900
C813        C  0.91560402  0.20483117  0.97489938    -0.07800
C814        C  0.90671719  0.29000763  0.65964079    -0.14200
C815        C  0.90820061  0.31932991  0.65735202    -0.14000
C816        C  0.91500347  0.35377819  0.65530362     0.24800
C817        C  0.92665787  0.36706985  0.61719289    -0.19400
C818        C  0.94213552  0.39753307  0.61772353    -0.07900
C819        C  0.94639660  0.41475068  0.65647443    -0.03900
C820        C  0.93118814  0.40307624  0.69350412    -0.09200
C821        C  0.91561597  0.37262256  0.69294287    -0.16900
H822        H  0.92574845  0.19535621  0.73269677     0.11300
H823        H  0.92628070  0.25434055  0.72702427     0.10500
H824        H  0.92461640  0.25306405  0.95145701     0.10500
H825        H  0.92306865  0.19420453  0.94484273     0.11000
H826        H  0.92134395  0.35409677  0.94862862     0.11100
H827        H  0.94958876  0.40689377  0.94720023     0.11000
H828        H  0.93494614  0.41553214  0.72389012     0.11200
H829        H  0.90682469  0.36256352  0.72267975     0.10000
C830        C  0.91220463  0.82584026  0.66987972    -0.03800
C831        C  0.90306429  0.80372158  0.70174174    -0.09600
C832        C  0.90981104  0.77055135  0.69716776    -0.17200
C833        C  0.92566858  0.75888109  0.66057184     0.24900
C834        C  0.93667825  0.78104647  0.62979798    -0.18900
C835        C  0.89855792  0.80166022  0.96939421    -0.07800
C836        C  0.92873574  0.72408199  0.65405329    -0.14200
C837        C  0.93033875  0.69472608  0.65079119    -0.14000
C838        C  0.93452909  0.65975436  0.64919455     0.24800
C839        C  0.94468204  0.64449447  0.61127614    -0.19400
C840        C  0.95614576  0.61238812  0.61200959    -0.07900
C841        C  0.95793799  0.59534056  0.65077519    -0.03900
C842        C  0.94423646  0.60949106  0.68763935    -0.09200
C843        C  0.93264604  0.64158622  0.68686314    -0.16900
H844        H  0.88902506  0.81195543  0.72909264     0.11300
H845        H  0.90133318  0.75381155  0.72132765     0.10500
H846        H  0.89547229  0.75083208  0.95296701     0.10500
H847        H  0.88233350  0.80849020  0.94337543     0.11000
H848        H  0.94626664  0.65818892  0.58190246     0.11100
H849        H  0.95433638  0.59348241  0.96754323     0.11000
H850        H  0.94616124  0.59721054  0.71807260     0.11200
H851        H  0.92479388  0.65304388  0.71643372     0.10000
C852        C  0.41219127  0.06011394  0.70608509    -0.03800
C853        C  0.39483196  0.06395321  0.99450390    -0.09600
C854        C  0.36279281  0.07613566  0.99671671    -0.17200
C855        C  0.34487563  0.07352066  0.03465396     0.24900
C856        C  0.36091771  0.07866285  0.73756309    -0.18900
C857        C  0.39364195  0.06879385  0.74224434    -0.07800
C858        C  0.30956770  0.07748615  0.03363427    -0.14200
C859        C  0.27995463  0.07804110  0.02982717    -0.14000
C860        C  0.24485588  0.07852906  0.02205181     0.24800
C861        C  0.22579503  0.07007203  0.71483941    -0.19400
C862        C  0.19156885  0.07298529  0.71044603    -0.07900
C863        C  0.17787409  0.08536208  0.67261722    -0.03900
C864        C  0.19897797  0.09424800  0.97688131    -0.09200
C865        C  0.23278763  0.09082385  0.98341339    -0.16900
H866        H  0.40660345  0.06243965  0.96356688     0.11300
H867        H  0.35102896  0.08484920  0.96781876     0.10500
H868        H  0.34590908  0.08166433  0.76580565     0.10500
H869        H  0.40267183  0.06303169  0.77397307     0.11000
H870        H  0.23609278  0.06196549  0.74495580     0.11100
H871        H  0.17601945  0.06787326  0.73756026     0.11000
H872        H  0.19025529  0.10579616  0.94793638     0.11200
H873        H  0.24956770  0.09903338  0.95899264     0.10000
C874        C  0.17212864  0.91154607  0.66794339    -0.03800
C875        C  0.18458806  0.92864561  0.70365124    -0.09600
C876        C  0.21860803  0.93306324  0.70865968    -0.17200
C877        C  0.24026335  0.92055008  0.67788437     0.24900
C878        C  0.22767235  0.90564325  0.64078514    -0.18900
C879        C  0.18278675  0.91648894  0.95542551    -0.07800
C880        C  0.27530105  0.92084019  0.68534066    -0.14200
C881        C  0.30472150  0.92041372  0.69070505    -0.14000
C882        C  0.33988421  0.92268525  0.69623688     0.24800
C883        C  0.35547788  0.92698043  0.94125620    -0.19400
C884        C  0.38787900  0.93772721  0.94694001    -0.07900
C885        C  0.40520469  0.94369564  0.70657224    -0.03900
C886        C  0.38611751  0.93632629  0.74251521    -0.09200
C887        C  0.35351949  0.92598105  0.73735421    -0.16900
H888        H  0.16831075  0.93626708  0.72909516     0.11300
H889        H  0.22806619  0.94475729  0.73746429     0.10500
H890        H  0.22598770  0.91975730  0.91646815     0.10500
H891        H  0.16635083  0.91556909  0.92800186     0.11000
H892        H  0.34301764  0.93144785  0.91113115     0.11100
H893        H  0.39950210  0.95111986  0.92144224     0.11000
H894        H  0.39500349  0.94258635  0.77432840     0.11200
H895        H  0.33822997  0.92332334  0.76534222     0.10000
C896        C  0.58637219  0.93211067  0.71425792    -0.03800
C897        C  0.60041089  0.92708480  0.93421776    -0.09600
C898        C  0.63078287  0.91141894  0.93166144    -0.17200
C899        C  0.64444075  0.89703806  0.96811045     0.24900
C900        C  0.63460923  0.90671531  0.74556499    -0.18900
C901        C  0.60495071  0.92339144  0.75041338    -0.07800
C902        C  0.67920671  0.89071144  0.96981675    -0.14200
C903        C  0.70874126  0.89026423  0.97343021    -0.14000
C904        C  0.74384051  0.89284039  0.97913583     0.24800
C905        C  0.76552689  0.87673982  0.71682745    -0.19400
C906        C  0.79949467  0.87925442  0.71176757    -0.07900
C907        C  0.81311940  0.89590568  0.67672182    -0.03900
C908        C  0.79891339  0.88250193  0.95393744    -0.09200
C909        C  0.76492762  0.88003134  0.94827206    -0.16900
H910        H  0.59207239  0.94145791  0.90738150     0.11300
H911        H  0.64495431  0.91333192  0.90257445     0.10500
H912        H  0.65015593  0.90294003  0.77336036     0.10500
H913        H  0.59852594  0.93286172  0.78172984     0.11000
H914        H  0.75581191  0.86361934  0.74387938     0.11100
H915        H  0.81535294  0.86770031  0.73505872     0.11000
H916        H  0.81471341  0.87193655  0.92979177     0.11200
H917        H  0.75513030  0.86794493  0.91993043     0.10000
C918        C  0.59501050  0.04861175  0.70679525    -0.03800
C919        C  0.60594401  0.05769922  0.97666635    -0.09600
C920        C  0.63821981  0.06960700  0.97896906    -0.17200
C921        C  0.65673369  0.06627430  0.01667425     0.24900
C922        C  0.64739942  0.06889356  0.73428720    -0.18900
C923        C  0.61544424  0.05759801  0.74144492    -0.07800
C924        C  0.69187238  0.07201521  0.01625547    -0.14200
C925        C  0.72139725  0.07523632  0.01382198    -0.14000
C926        C  0.75643383  0.07992759  0.00859564     0.24800
C927        C  0.78101210  0.06339755  0.69511200    -0.19400
C928        C  0.81476033  0.07004566  0.69164433    -0.07900
C929        C  0.82564405  0.09566753  0.66586315    -0.03900
C930        C  0.80126105  0.10769643  0.97338366    -0.09200
C931        C  0.76772954  0.10096165  0.97694680    -0.16900
H932        H  0.59339983  0.05723484  0.94596400     0.11300
H933        H  0.64950495  0.07915378  0.95039793     0.10500
H934        H  0.66366547  0.07321661  0.76137016     0.10500
H935        H  0.60803319  0.05231760  0.77387729     0.11000
H936        H  0.77284697  0.04447193  0.71650714     0.11100
H937        H  0.83208638  0.05648230  0.71089243     0.11000
H938        H  0.80925170  0.12499994  0.94964429     0.11200
H939        H  0.75050520  0.11292766  0.95574317     0.10000
loop_ 
_geom_bond_atom_site_label_1 
_geom_bond_atom_site_label_2 
_geom_bond_distance 
_geom_bond_site_symmetry_2 
_ccdc_geom_bond_type 
C1            C2   1.391       .  A
C1            C6   1.414       .  A
C1          C583   1.481       .  S
C2          C316   1.392   1_565  A
C2           H21   1.087       .  S
C3            C4   1.417       .  A
C3          C628   1.392   1_544  A
C3          C292   1.482       .  S
C4           C11   1.406       .  A
C4          C631   1.426   1_544  A
C5            C6   1.427       .  A
C5          C317   1.425   1_565  A
C5          C323   1.420       .  A
C6            C7   1.404       .  A
C7            C8   1.398       .  A
C7           H17   1.083       .  S
C8            C9   1.405       .  A
C8           H18   1.083       .  S
C9           C16   1.413       .  A
C9          C323   1.425       .  A
C10          C13   1.425   1_565  A
C10         C631   1.419   1_554  A
C10         C635   1.425   1_554  A
C11          C12   1.401       .  A
C11          H19   1.083       .  S
C12          C13   1.406       .  A
C12          H20   1.083       .  S
C13          C14   1.416       .  A
C14          C15   1.393   1_545  A
C14         C226   1.480       .  S
C15         C642   1.390   1_554  A
C15          H22   1.087       .  S
C16         C328   1.390   1_565  A
C16         C572   1.480       .  S
C23          C24   1.545   1_556  S
C23          C29   1.528       .  S
C23         C653   1.531       .  S
C23         C281   1.529       .  S
C24          H31   1.082       .  S
C24          C25   1.372       .  D
C25          C26   1.545       .  S
C25          C54   1.483       .  S
C26          C30   1.549   1_554  S
C26         C654   1.548   1_554  S
C26          H32   1.111       .  S
C27         C336   1.537       .  S
C27          H33   1.086       .  S
C27          C28   1.369       .  D
C28         C339   1.549       .  S
C28          C55   1.483       .  S
C29          H34   1.087       .  S
C29          C30   1.361       .  D
C30         C204   1.489       .  S
N35          N36   1.326       .  A
N35          N41   1.318       .  A
N35         Mn64   2.223       .  S
N36          C43   1.355       .  A
N37          N39   1.318       .  A
N37          N38   1.319       .  A
N37         Mn53   2.210   1_455  S
N38          C44   1.352       .  A
N39          N40   1.325       .  A
N39         Mn64   2.216       .  S
N40          C44   1.353       .  A
N41          N42   1.318       .  A
N41         Mn53   2.199   1_455  S
N42          C43   1.350       .  A
C43          C97   1.477       .  S
C44          C94   1.477       .  S
N45          N51   1.318       .  A
N45          N46   1.321       .  A
N45         Mn75   2.214   1_565  S
N46          C54   1.353       .  A
N47          N48   1.326       .  A
N47          N49   1.318       .  A
N47         Mn53   2.224       .  S
N48          C55   1.355       .  A
N49          N50   1.320       .  A
N49         Mn75   2.214   1_565  S
N50          C55   1.353       .  A
N51          N52   1.325       .  A
N51         Mn53   2.223       .  S
N52          C54   1.355       .  A
Mn53        Cl77   2.543       .  S
N56          N57   1.328       .  A
N56          N62   1.317       .  A
N56         Mn64   2.230   1_545  S
N57          C65   1.358       .  A
N58          N60   1.316       .  A
N58          N59   1.316       .  A
N58         Mn76   2.198   1_455  S
N59          C66   1.350       .  A
N60          N61   1.328       .  A
N60         Mn64   2.222   1_545  S
N61          C66   1.357       .  A
N62          N63   1.317       .  A
N62         Mn76   2.198   1_455  S
N63          C65   1.350       .  A
Mn64        Cl77   2.572   1_455  S
C65         C109   1.483       .  S
C66         C106   1.481       .  S
N67          N68   1.328       .  A
N67          N73   1.317       .  A
N67         Mn75   2.232       .  S
N68          C78   1.358       .  A
N69          N70   1.317       .  A
N69          N71   1.317       .  A
N69         Mn76   2.197       .  S
N70          C79   1.350       .  A
N71          N72   1.328       .  A
N71         Mn75   2.232       .  S
N72          C79   1.358       .  A
N73          N74   1.318       .  A
N73         Mn76   2.195       .  S
N74          C78   1.350       .  A
Mn75        Cl77   2.570   1_545  S
Mn76        Cl77   2.536   1_545  S
C78          C85   1.483       .  S
C79          C82   1.482       .  S
C80          C81   1.536       .  S
C80          C86   1.527       .  S
C80         C710   1.542   1_554  S
C80         C182   1.536       .  S
C81          H88   1.086       .  S
C81          C82   1.370       .  D
C82          C83   1.545       .  S
C83          C87   1.549       .  S
C83         C711   1.548   1_554  S
C83          H89   1.111       .  S
C84         C393   1.544       .  S
C84          H90   1.082       .  S
C84          C85   1.372       .  D
C85         C396   1.545       .  S
C86          H91   1.087       .  S
C86          C87   1.363       .  D
C87         C303   1.487       .  S
C92          C93   1.534       .  S
C92          C98   1.528       .  S
C92         C722   1.544   1_554  S
C92         C171   1.528       .  S
C93         H100   1.086       .  S
C93          C94   1.368       .  D
C94          C95   1.545       .  S
C95          C99   1.539       .  S
C95         C723   1.537   1_554  S
C95         H101   1.111       .  S
C96         C405   1.542       .  S
C96         H102   1.083       .  S
C96          C97   1.369       .  D
C97         C408   1.541       .  S
C98         H103   1.088   1_554  S
C98          C99   1.357       .  D
C99         C248   1.471   1_554  S
C104        C110   1.526       .  S
C104        C108   1.535       .  S
C104        C731   1.540   1_554  S
C104        C149   1.533       .  S
C105        C417   1.531       .  S
C105        H112   1.087       .  S
C105        C106   1.369       .  D
C106        C420   1.550       .  S
C107        C111   1.549       .  S
C107        C109   1.546       .  S
C107        C732   1.547   1_554  S
C107        H113   1.111       .  S
C108        H114   1.086       .  S
C108        C109   1.370       .  D
C110        H115   1.087       .  S
C110        C111   1.360       .  D
C111        C237   1.480       .  S
C116        C117   1.391       .  A
C116        C121   1.410       .  A
C116        C160   1.477       .  S
C117        C118   1.393   1_455  A
C117        H136   1.087       .  S
C118        C119   1.419       .  A
C118        C215   1.485       .  S
C119        C120   1.427   1_655  A
C119        C126   1.406       .  A
C120        C121   1.424       .  A
C120        C125   1.420       .  A
C121        C122   1.404       .  A
C122        C123   1.394       .  A
C122        H132   1.083       .  S
C123        C124   1.404       .  A
C123        H133   1.083       .  S
C124        C125   1.425       .  A
C124        C131   1.411       .  A
C125        C128   1.425   1_455  A
C126        C127   1.402       .  A
C126        H134   1.083       .  S
C127        C128   1.407       .  A
C127        H135   1.083       .  S
C128        C129   1.417       .  A
C129        C130   1.395   1_655  A
C129        C193   1.482       .  S
C130        C131   1.391       .  A
C130        H137   1.087       .  S
C131        C138   1.479       .  S
C138        C139   1.404       .  A
C138        C143   1.404   1_554  A
C139        C140   1.400       .  A
C139        H152   1.083       .  S
C140        C141   1.401       .  A
C140        H153   1.083       .  S
C141        C142   1.401   1_554  A
C141        C144   1.443       .  S
C142        C143   1.399       .  A
C142        H154   1.084       .  S
C143        H155   1.083       .  S
C144        C145   1.208       .  T
C145        C146   1.444       .  S
C146        C147   1.399   1_554  A
C146        C151   1.398       .  A
C147        C148   1.400       .  A
C147        H156   1.084       .  S
C148        C149   1.412   1_556  A
C148        H783   1.077       .  S
C149        C150   1.412       .  A
C150        C151   1.400       .  A
C150        H158   1.083       .  S
C151        H159   1.083       .  S
H157        C461   1.083       .  S
C160        C161   1.405   1_554  A
C160        C165   1.405       .  A
C161        C788   1.399       .  A
C161        H800   1.083       .  S
C162        C474   1.399       .  A
C162        C476   1.401       .  A
C162        H175   1.083       .  S
C163        C164   1.400       .  A
C163        C788   1.400   1_554  A
C163        C166   1.440       .  S
C164        C165   1.398       .  A
C164        H176   1.084       .  S
C165        H177   1.083       .  S
C166        C167   1.207       .  T
C167        C168   1.441       .  S
C168        C169   1.396       .  A
C168        C799   1.400   1_554  A
C169        C170   1.395       .  A
C169        H178   1.084       .  S
C170        C171   1.411       .  A
C170        H179   1.083       .  S
C171        C798   1.412   1_554  A
C172        C173   1.401       .  A
C172        C484   1.412       .  A
C172        H180   1.078       .  S
C173        C481   1.399       .  A
C173        H181   1.083       .  S
H174        C474   1.083       .  S
C182        C183   1.413       .  A
C182        C813   1.412   1_554  A
C183        C184   1.402       .  A
C183        H196   1.083       .  S
C184        C185   1.399       .  A
C184        H197   1.083       .  S
C185        C812   1.400   1_554  A
C185        C188   1.449       .  S
C186        C187   1.402       .  A
C186        C498   1.400       .  A
C186        H198   1.084       .  S
C187        C495   1.411       .  A
C187        H199   1.077       .  S
C188        C189   1.211       .  T
C189        C190   1.448       .  S
C190        C191   1.401   1_554  A
C190        C195   1.402       .  A
C191        C192   1.400       .  A
C191        H826   1.084       .  S
C192        C193   1.406   1_556  A
C192        H827   1.083       .  S
C193        C194   1.405       .  A
C194        C195   1.403       .  A
C194        H202   1.083       .  S
C195        H203   1.083       .  S
H200        C504   1.084       .  S
H201        C505   1.083       .  S
C204        C205   1.405   1_556  A
C204        C835   1.408       .  A
C205        C206   1.408       .  A
C205        H218   1.083       .  S
C206        C207   1.406       .  A
C206        H219   1.083       .  S
C207        C208   1.399   1_554  A
C207        C210   1.451       .  S
C208        C835   1.398       .  A
C208        H846   1.084       .  S
C209        C517   1.405       .  A
C209        C521   1.401       .  A
C209        H221   1.083       .  S
C210        C211   1.213       .  T
C211        C212   1.451       .  S
C212        C213   1.403   1_554  A
C212        C217   1.401       .  A
C213        C214   1.403       .  A
C213        H222   1.083       .  S
C214        C215   1.406   1_556  A
C214        H849   1.083       .  S
C215        C216   1.408       .  A
C216        C217   1.402       .  A
C216        H224   1.083       .  S
C217        H225   1.083       .  S
H220        C521   1.083       .  S
H223        C527   1.083       .  S
C226        C231   1.407       .  A
C226        C853   1.406   1_554  A
C227        C228   1.401       .  A
C227        C539   1.407       .  A
C227        H240   1.083       .  S
C228        C229   1.401       .  A
C228        H241   1.084       .  S
C229        C543   1.401       .  A
C229        C232   1.449       .  S
C230        C231   1.402       .  A
C230        C855   1.401       .  A
C230        H242   1.083       .  S
C231        H243   1.083       .  S
C232        C233   1.212       .  T
C233        C234   1.449       .  S
C234        C239   1.398       .  A
C234        C548   1.407       .  A
C235        C236   1.405       .  A
C235        C860   1.405       .  A
C235        H244   1.083       .  S
C236        C237   1.404       .  A
C236        H245   1.083       .  S
C237        C864   1.406   1_554  A
C238        C239   1.395       .  A
C238        C550   1.407       .  A
C238        H246   1.084       .  S
C239        H247   1.084       .  S
C248        C249   1.402   1_556  A
C248        C879   1.404       .  A
C249        C250   1.398       .  A
C249        H262   1.083       .  S
C250        C251   1.401   1_554  A
C250        H263   1.084       .  S
C251        C252   1.401       .  A
C251        C254   1.442       .  S
C252        C879   1.400       .  A
C252        H890   1.083       .  S
C253        C561   1.403       .  A
C253        C565   1.404       .  A
C253        H265   1.083       .  S
C254        C255   1.207       .  T
C255        C256   1.441       .  S
C256        C261   1.401   1_556  A
C256        C883   1.400       .  A
C257        C258   1.399       .  A
C257        C569   1.400       .  A
C257        H266   1.083       .  S
C258        C572   1.407       .  A
C258        H267   1.083       .  S
C259        C260   1.404   1_556  A
C259        C884   1.405       .  A
C259        C642   1.476       .  S
C260        C261   1.398       .  A
C260        H268   1.083       .  S
C261        H269   1.084       .  S
H264        C565   1.083       .  S
C270        C275   1.404   1_556  A
C270        C897   1.405       .  A
C270        C627   1.476       .  S
C271        C272   1.401       .  A
C271        C583   1.406       .  A
C271        H284   1.083       .  S
C272        C273   1.401       .  A
C272        H285   1.083       .  S
C273        C587   1.402       .  A
C273        C276   1.448       .  S
C274        C275   1.399       .  A
C274        C899   1.401   1_554  A
C274        H286   1.084       .  S
C275        H287   1.083       .  S
C276        C277   1.211       .  T
C277        C278   1.449       .  S
C278        C283   1.399       .  A
C278        C592   1.400       .  A
C279        C280   1.401       .  A
C279        C904   1.401   1_554  A
C279        H288   1.084       .  S
C280        C281   1.410   1_554  A
C280        H289   1.078       .  S
C281        C908   1.413       .  A
C282        C283   1.401       .  A
C282        C594   1.412       .  A
C282        H290   1.083       .  S
C283        H291   1.083       .  S
C292        C297   1.406       .  A
C292        C919   1.406   1_554  A
C293        C294   1.401       .  A
C293        C605   1.404       .  A
C293        H306   1.083       .  S
C294        C295   1.402       .  A
C294        H307   1.083       .  S
C295        C609   1.400       .  A
C295        C298   1.445       .  S
C296        C297   1.402       .  A
C296        C921   1.402       .  A
C296        H308   1.083       .  S
C297        H309   1.083       .  S
C298        C299   1.209       .  T
C299        C300   1.445       .  S
C300        C305   1.397       .  A
C300        C614   1.405       .  A
C301        C302   1.407       .  A
C301        C926   1.406       .  A
C301        H310   1.083       .  S
C302        C303   1.405       .  A
C302        H311   1.083       .  S
C303        C930   1.407   1_554  A
C304        C305   1.395       .  A
C304        C616   1.408       .  A
C304        H312   1.083       .  S
C305        H313   1.084       .  S
C314        C315   1.391       .  A
C314        C319   1.411       .  A
C314        C896   1.477       .  S
C315        C629   1.393   1_565  A
C315        H334   1.087       .  S
C316        C317   1.415       .  A
C316        C605   1.480       .  S
C317        C324   1.406       .  A
C318        C630   1.425   1_565  A
C318        C319   1.424       .  A
C318        C636   1.419       .  A
C319        C320   1.405       .  A
C320        C321   1.395       .  A
C320        H330   1.083       .  S
C321        C322   1.404       .  A
C321        H331   1.083       .  S
C322        C636   1.425       .  A
C322        C329   1.410       .  A
C323        C326   1.427   1_565  A
C324        C325   1.400       .  A
C324        H332   1.083       .  S
C325        C326   1.405       .  A
C325        H333   1.083       .  S
C326        C327   1.415       .  A
C327        C328   1.392       .  A
C327        C539   1.482       .  S
C328        H335   1.088       .  S
C329        C641   1.388   1_565  A
C329        C885   1.477       .  S
C336        C337   1.546       .  S
C336        C342   1.530       .  S
C336        C594   1.535       .  S
C337        H344   1.082       .  S
C337        C338   1.370       .  D
C338        C339   1.545       .  S
C338        C367   1.483       .  S
C339        C343   1.546       .  S
C339        H345   1.111       .  S
C340        C649   1.547       .  S
C340        H346   1.082       .  S
C340        C341   1.373       .  D
C341        C652   1.542       .  S
C341        C368   1.481       .  S
C342        H347   1.087       .  S
C342        C343   1.360       .  D
C343        C517   1.483       .  S
N348        N349   1.325       .  A
N348        N354   1.319       .  A
N348       Mn377   2.225       .  S
N349        C356   1.355       .  A
N350        N352   1.318       .  A
N350        N351   1.318       .  A
N350       Mn366   2.204   1_455  S
N351        C357   1.351       .  A
N352        N353   1.326       .  A
N352       Mn377   2.224       .  S
N353        C357   1.355       .  A
N354        N355   1.319       .  A
N354       Mn366   2.205   1_455  S
N355        C356   1.351       .  A
C356        C410   1.479       .  S
C357        C407   1.479       .  S
N358        N364   1.318       .  A
N358        N359   1.321       .  A
N358       Mn388   2.213   1_565  S
N359        C367   1.354       .  A
N360        N361   1.325       .  A
N360        N362   1.318       .  A
N360       Mn366   2.224       .  S
N361        C368   1.355       .  A
N362        N363   1.321       .  A
N362       Mn388   2.207   1_565  S
N363        C368   1.352       .  A
N364        N365   1.325       .  A
N364       Mn366   2.222       .  S
N365        C367   1.355       .  A
Mn366      Cl390   2.542       .  S
N369        N370   1.329       .  A
N369        N375   1.316       .  A
N369       Mn377   2.232   1_545  S
N370        C378   1.358       .  A
N371        N373   1.317       .  A
N371        N372   1.318       .  A
N371       Mn389   2.200       .  S
N372        C379   1.350       .  A
N373        N374   1.329       .  A
N373       Mn377   2.235   1_545  S
N374        C379   1.359       .  A
N375        N376   1.316       .  A
N375       Mn389   2.194       .  S
N376        C378   1.350       .  A
Mn377      Cl390   2.573   1_455  S
C378        C422   1.484       .  S
C379        C419   1.486       .  S
N380        N381   1.327       .  A
N380        N386   1.317       .  A
N380       Mn388   2.230       .  S
N381        C391   1.358       .  A
N382        N383   1.317       .  A
N382        N384   1.317       .  A
N382       Mn389   2.197   1_655  S
N383        C392   1.350       .  A
N384        N385   1.327       .  A
N384       Mn388   2.222       .  S
N385        C392   1.356       .  A
N386        N387   1.316       .  A
N386       Mn389   2.191   1_655  S
N387        C391   1.349       .  A
Mn388      Cl390   2.572   1_545  S
Mn389      Cl390   2.533   1_445  S
C391        C398   1.479       .  S
C392        C395   1.479       .  S
C393        C394   1.532       .  S
C393        C399   1.526       .  S
C393        C495   1.533       .  S
C394        H401   1.087       .  S
C394        C395   1.367       .  D
C395        C396   1.545       .  S
C396        C400   1.547       .  S
C396        H402   1.111       .  S
C397        C706   1.534       .  S
C397        H403   1.086       .  S
C397        C398   1.369       .  D
C398        C709   1.544       .  S
C399        H404   1.087       .  S
C399        C400   1.363       .  D
C400        C616   1.486       .  S
C405        C406   1.535       .  S
C405        C411   1.527       .  S
C405        C484   1.530       .  S
C406        H413   1.086       .  S
C406        C407   1.370       .  D
C407        C408   1.547       .  S
C408        C412   1.543       .  S
C408        H414   1.111       .  S
C409        C718   1.544       .  S
C409        H415   1.083       .  S
C409        C410   1.372       .  D
C410        C721   1.544       .  S
C411        H416   1.087       .  S
C411        C412   1.360       .  D
C412        C561   1.479       .  S
C417        C423   1.523       .  S
C417        C421   1.540       .  S
C417        C462   1.530       .  S
C418        C730   1.542       .  S
C418        H425   1.084       .  S
C418        C419   1.372       .  D
C419        C733   1.548       .  S
C420        C424   1.552       .  S
C420        C422   1.547       .  S
C420        H426   1.111       .  S
C421        H427   1.082       .  S
C421        C422   1.371       .  D
C423        H428   1.087       .  S
C423        C424   1.362       .  D
C424        C550   1.486       .  S
C429        C430   1.392       .  A
C429        C434   1.410       .  A
C429        C473   1.476       .  S
C430        C431   1.392   1_455  A
C430        H449   1.087       .  S
C431        C432   1.417       .  A
C431        C528   1.482       .  S
C432        C433   1.426   1_655  A
C432        C439   1.405       .  A
C433        C434   1.424       .  A
C433        C438   1.419       .  A
C434        C435   1.404       .  A
C435        C436   1.394       .  A
C435        H445   1.083       .  S
C436        C437   1.404       .  A
C436        H446   1.083       .  S
C437        C438   1.424       .  A
C437        C444   1.411       .  A
C438        C441   1.424   1_455  A
C439        C440   1.401       .  A
C439        H447   1.083       .  S
C440        C441   1.406       .  A
C440        H448   1.083       .  S
C441        C442   1.416       .  A
C442        C443   1.395   1_655  A
C442        C506   1.480       .  S
C443        C444   1.391       .  A
C443        H450   1.087       .  S
C444        C451   1.477       .  S
C451        C452   1.404       .  A
C451        C456   1.404       .  A
C452        C453   1.398       .  A
C452        H465   1.083       .  S
C453        C454   1.401       .  A
C453        H466   1.084       .  S
C454        C455   1.401       .  A
C454        C457   1.441       .  S
C455        C456   1.400       .  A
C455        H467   1.083       .  S
C456        H468   1.083       .  S
C457        C458   1.207       .  T
C458        C459   1.442       .  S
C459        C460   1.397       .  A
C459        C464   1.399       .  A
C460        C461   1.399       .  A
C460        H469   1.083       .  S
C461        C462   1.412       .  A
C462        C463   1.411       .  A
C463        C464   1.399       .  A
C463        H471   1.077       .  S
C464        H472   1.084       .  S
H470        C774   1.079       .  S
C473        C474   1.404       .  A
C473        C478   1.405       .  A
C475        C787   1.399       .  A
C475        C789   1.401       .  A
C475        H488   1.083       .  S
C476        C477   1.400       .  A
C476        C479   1.442       .  S
C477        C478   1.398       .  A
C477        H489   1.084       .  S
C478        H490   1.083       .  S
C479        C480   1.208       .  T
C480        C481   1.443       .  S
C481        C482   1.397       .  A
C482        C483   1.398       .  A
C482        H491   1.083       .  S
C483        C484   1.411       .  A
C483        H492   1.083       .  S
C485        C797   1.411       .  A
C485        C486   1.401       .  A
C485        H493   1.078       .  S
C486        C794   1.400       .  A
C486        H494   1.084       .  S
H487        C787   1.083       .  S
C495        C496   1.413       .  A
C496        C497   1.400       .  A
C496        H509   1.083       .  S
C497        C498   1.398       .  A
C497        H510   1.083       .  S
C498        C501   1.447       .  S
C499        C811   1.397       .  A
C499        C500   1.398       .  A
C499        H511   1.084       .  S
C500        C808   1.412       .  A
C500        H512   1.083       .  S
C501        C502   1.210       .  T
C502        C503   1.446       .  S
C503        C504   1.401       .  A
C503        C508   1.402       .  A
C504        C505   1.400       .  A
C505        C506   1.405       .  A
C506        C507   1.406       .  A
C507        C508   1.402       .  A
C507        H515   1.083       .  S
C508        H516   1.083       .  S
H513        C817   1.084       .  S
H514        C818   1.083       .  S
C517        C518   1.405       .  A
C518        C519   1.406       .  A
C518        H531   1.083       .  S
C519        C520   1.405       .  A
C519        H532   1.083       .  S
C520        C521   1.401       .  A
C520        C523   1.451       .  S
C522        C830   1.404       .  A
C522        C834   1.406       .  A
C522        H534   1.083       .  S
C523        C524   1.213       .  T
C524        C525   1.451       .  S
C525        C526   1.402       .  A
C525        C530   1.402       .  A
C526        C527   1.402       .  A
C526        H535   1.083       .  S
C527        C528   1.406       .  A
C528        C529   1.407       .  A
C529        C530   1.402       .  A
C529        H537   1.083       .  S
C530        H538   1.083       .  S
H533        C834   1.083       .  S
H536        C840   1.083       .  S
C539        C544   1.407       .  A
C540        C852   1.406       .  A
C540        C541   1.401       .  A
C540        H553   1.083       .  S
C541        C542   1.401       .  A
C541        H554   1.083       .  S
C542        C856   1.401       .  A
C542        C545   1.448       .  S
C543        C544   1.403       .  A
C543        H555   1.083       .  S
C544        H556   1.083       .  S
C545        C546   1.211       .  T
C546        C547   1.448       .  S
C547        C861   1.405       .  A
C547        C552   1.400       .  A
C548        C549   1.408       .  A
C548        H557   1.083       .  S
C549        C550   1.405       .  A
C549        H558   1.083       .  S
C551        C863   1.406       .  A
C551        C552   1.399       .  A
C551        H559   1.083       .  S
C552        H560   1.083       .  S
C561        C562   1.406       .  A
C562        C563   1.396       .  A
C562        H575   1.083       .  S
C563        C564   1.399       .  A
C563        H576   1.084       .  S
C564        C565   1.404       .  A
C564        C567   1.445       .  S
C566        C874   1.406       .  A
C566        C878   1.396       .  A
C566        H578   1.084       .  S
C567        C568   1.209       .  T
C568        C569   1.444       .  S
C569        C574   1.402       .  A
C570        C882   1.401       .  A
C570        C571   1.399       .  A
C570        H579   1.084       .  S
C571        C885   1.405       .  A
C571        H580   1.083       .  S
C572        C573   1.404       .  A
C573        C574   1.401       .  A
C573        H581   1.083       .  S
C574        H582   1.083       .  S
H577        C878   1.084       .  S
C583        C588   1.406       .  A
C584        C896   1.404       .  A
C584        C585   1.399       .  A
C584        H597   1.083       .  S
C585        C586   1.401       .  A
C585        H598   1.083       .  S
C586        C900   1.401       .  A
C586        C589   1.441       .  S
C587        C588   1.402       .  A
C587        H599   1.083       .  S
C588        H600   1.083       .  S
C589        C590   1.207       .  T
C590        C591   1.443       .  S
C591        C905   1.396       .  A
C591        C596   1.401       .  A
C592        C593   1.403       .  A
C592        H601   1.084       .  S
C593        C594   1.412       .  A
C593        H602   1.078       .  S
C595        C907   1.410       .  A
C595        C596   1.402       .  A
C595        H603   1.078       .  S
C596        H604   1.084       .  S
C605        C610   1.407       .  A
C606        C918   1.405       .  A
C606        C607   1.400       .  A
C606        H619   1.083       .  S
C607        C608   1.401       .  A
C607        H620   1.083       .  S
C608        C922   1.401       .  A
C608        C611   1.445       .  S
C609        C610   1.400       .  A
C609        H621   1.083       .  S
C610        H622   1.083       .  S
C611        C612   1.209       .  T
C612        C613   1.445       .  S
C613        C927   1.405       .  A
C613        C618   1.397       .  A
C614        C615   1.406       .  A
C614        H623   1.083       .  S
C615        C616   1.404       .  A
C615        H624   1.083       .  S
C617        C929   1.410       .  A
C617        C618   1.395       .  A
C617        H625   1.083       .  S
C618        H626   1.084       .  S
C627        C628   1.391       .  A
C627        C632   1.410       .  A
C628        H647   1.087       .  S
C629        C630   1.415       .  A
C629        C918   1.479       .  S
C630        C637   1.406       .  A
C631        C632   1.424       .  A
C632        C633   1.404       .  A
C633        C634   1.394       .  A
C633        H643   1.083       .  S
C634        C635   1.404       .  A
C634        H644   1.083       .  S
C635        C642   1.409       .  A
C636        C639   1.426   1_565  A
C637        C638   1.400       .  A
C637        H645   1.083       .  S
C638        C639   1.405       .  A
C638        H646   1.083       .  S
C639        C640   1.415       .  A
C640        C641   1.392       .  A
C640        C852   1.480       .  S
C641        H648   1.088       .  S
C649        C650   1.532       .  S
C649        C655   1.529       .  S
C649        C907   1.529       .  S
C650        H657   1.087       .  S
C650        C651   1.365       .  D
C651        C652   1.544       .  S
C651        C680   1.474       .  S
C652        C656   1.544       .  S
C652        H658   1.111       .  S
C653        H659   1.087       .  S
C653        C654   1.366       .  D
C654        C681   1.478       .  S
C655        H660   1.087       .  S
C655        C656   1.359       .  D
C656        C830   1.482       .  S
N661        N662   1.325       .  A
N661        N667   1.317       .  A
N661       Mn690   2.223       .  S
N662        C669   1.356       .  A
N663        N665   1.318       .  A
N663        N664   1.318       .  A
N663       Mn679   2.203   1_455  S
N664        C670   1.351       .  A
N665        N666   1.326       .  A
N665       Mn690   2.224       .  S
N666        C670   1.355       .  A
N667        N668   1.316       .  A
N667       Mn679   2.185   1_455  S
N668        C669   1.348       .  A
C669        C723   1.472       .  S
C670        C720   1.479       .  S
N671        N677   1.317       .  A
N671        N672   1.318       .  A
N671       Mn701   2.208   1_565  S
N672        C680   1.352       .  A
N673        N674   1.325       .  A
N673        N675   1.317       .  A
N673       Mn679   2.215       .  S
N674        C681   1.353       .  A
N675        N676   1.319       .  A
N675       Mn701   2.207   1_565  S
N676        C681   1.353       .  A
N677        N678   1.324       .  A
N677       Mn679   2.207       .  S
N678        C680   1.352       .  A
Mn679      Cl703   2.542   1_565  S
N682        N683   1.328       .  A
N682        N688   1.317       .  A
N682       Mn690   2.227   1_545  S
N683        C691   1.357       .  A
N684        N686   1.317       .  A
N684        N685   1.316       .  A
N684       Mn702   2.196       .  S
N685        C692   1.350       .  A
N686        N687   1.328       .  A
N686       Mn690   2.227   1_545  S
N687        C692   1.357       .  A
N688        N689   1.317       .  A
N688       Mn702   2.202       .  S
N689        C691   1.350       .  A
Mn690      Cl703   2.570   1_465  S
C691        C735   1.482       .  S
C692        C732   1.482       .  S
N693        N694   1.328       .  A
N693        N699   1.317       .  A
N693       Mn701   2.227       .  S
N694        C704   1.357       .  A
N695        N696   1.317       .  A
N695        N697   1.317       .  A
N695       Mn702   2.198   1_655  S
N696        C705   1.350       .  A
N697        N698   1.328       .  A
N697       Mn701   2.229       .  S
N698        C705   1.357       .  A
N699        N700   1.318       .  A
N699       Mn702   2.204   1_655  S
N700        C704   1.352       .  A
Mn701      Cl703   2.566       .  S
Mn702      Cl703   2.534   1_455  S
C704        C711   1.485       .  S
C705        C708   1.483       .  S
C706        C707   1.540       .  S
C706        C712   1.524       .  S
C706        C808   1.531       .  S
C707        H714   1.082       .  S
C707        C708   1.371       .  D
C708        C709   1.546       .  S
C709        C713   1.549       .  S
C709        H715   1.110       .  S
C710        H716   1.083       .  S
C710        C711   1.370       .  D
C712        H717   1.087       .  S
C712        C713   1.363       .  D
C713        C929   1.488       .  S
C718        C719   1.536       .  S
C718        C724   1.525       .  S
C718        C797   1.529       .  S
C719        H726   1.086       .  S
C719        C720   1.369       .  D
C720        C721   1.543       .  S
C721        C725   1.543       .  S
C721        H727   1.111       .  S
C722        H728   1.082       .  S
C722        C723   1.371       .  D
C724        H729   1.088       .  S
C724        C725   1.358       .  D
C725        C874   1.478       .  S
C730        C736   1.523       .  S
C730        C734   1.535       .  S
C730        C775   1.532       .  S
C731        H738   1.082       .  S
C731        C732   1.370       .  D
C733        C737   1.549       .  S
C733        C735   1.547       .  S
C733        H739   1.111       .  S
C734        H740   1.086       .  S
C734        C735   1.369       .  D
C736        H741   1.087       .  S
C736        C737   1.360       .  D
C737        C863   1.480       .  S
C742        C743   1.391       .  A
C742        C747   1.410       .  A
C742        C786   1.475       .  S
C743        C744   1.393   1_455  A
C743        H762   1.087       .  S
C744        C745   1.415       .  A
C744        C841   1.481       .  S
C745        C746   1.426   1_655  A
C745        C752   1.405       .  A
C746        C747   1.423       .  A
C746        C751   1.419       .  A
C747        C748   1.404       .  A
C748        C749   1.395       .  A
C748        H758   1.083       .  S
C749        C750   1.404       .  A
C749        H759   1.083       .  S
C750        C751   1.426       .  A
C750        C757   1.412       .  A
C751        C754   1.423   1_455  A
C752        C753   1.399       .  A
C752        H760   1.083       .  S
C753        C754   1.406       .  A
C753        H761   1.083       .  S
C754        C755   1.413       .  A
C755        C756   1.394   1_655  A
C755        C819   1.477       .  S
C756        C757   1.391       .  A
C756        H763   1.087       .  S
C757        C764   1.480       .  S
C764        C765   1.405       .  A
C764        C769   1.404       .  A
C765        C766   1.399       .  A
C765        H778   1.083       .  S
C766        C767   1.400       .  A
C766        H779   1.083       .  S
C767        C768   1.402       .  A
C767        C770   1.445       .  S
C768        C769   1.402       .  A
C768        H780   1.083       .  S
C769        H781   1.083       .  S
C770        C771   1.210       .  T
C771        C772   1.446       .  S
C772        C773   1.400       .  A
C772        C777   1.398       .  A
C773        C774   1.401       .  A
C773        H782   1.084       .  S
C774        C775   1.411       .  A
C775        C776   1.412       .  A
C776        C777   1.400       .  A
C776        H784   1.083       .  S
C777        H785   1.083       .  S
C786        C787   1.404       .  A
C786        C791   1.404       .  A
C788        H801   1.083       .  S
C789        C790   1.400       .  A
C789        C792   1.441       .  S
C790        C791   1.398       .  A
C790        H802   1.084       .  S
C791        H803   1.083       .  S
C792        C793   1.207       .  T
C793        C794   1.442       .  S
C794        C795   1.397       .  A
C795        C796   1.398       .  A
C795        H804   1.083       .  S
C796        C797   1.412       .  A
C796        H805   1.083       .  S
C798        C799   1.402       .  A
C798        H806   1.078       .  S
C799        H807   1.084       .  S
C808        C809   1.412       .  A
C809        C810   1.402       .  A
C809        H822   1.077       .  S
C810        C811   1.400       .  A
C810        H823   1.084       .  S
C811        C814   1.444       .  S
C812        C813   1.401       .  A
C812        H824   1.084       .  S
C813        H825   1.078       .  S
C814        C815   1.208       .  T
C815        C816   1.443       .  S
C816        C817   1.400       .  A
C816        C821   1.401       .  A
C817        C818   1.399       .  A
C818        C819   1.405       .  A
C819        C820   1.404       .  A
C820        C821   1.400       .  A
C820        H828   1.083       .  S
C821        H829   1.083       .  S
C830        C831   1.406       .  A
C831        C832   1.396       .  A
C831        H844   1.084       .  S
C832        C833   1.399       .  A
C832        H845   1.084       .  S
C833        C834   1.405       .  A
C833        C836   1.447       .  S
C835        H847   1.083       .  S
C836        C837   1.211       .  T
C837        C838   1.447       .  S
C838        C839   1.400       .  A
C838        C843   1.402       .  A
C839        C840   1.400       .  A
C839        H848   1.083       .  S
C840        C841   1.407       .  A
C841        C842   1.405       .  A
C842        C843   1.402       .  A
C842        H850   1.083       .  S
C843        H851   1.083       .  S
C852        C857   1.407       .  A
C853        C854   1.401       .  A
C853        H866   1.083       .  S
C854        C855   1.401   1_556  A
C854        H867   1.083       .  S
C855        C858   1.448       .  S
C856        C857   1.401       .  A
C856        H868   1.083       .  S
C857        H869   1.083       .  S
C858        C859   1.211       .  T
C859        C860   1.448       .  S
C860        C865   1.400   1_554  A
C861        C862   1.405       .  A
C861        H870   1.083       .  S
C862        C863   1.404       .  A
C862        H871   1.083       .  S
C864        C865   1.398       .  A
C864        H872   1.083       .  S
C865        H873   1.084       .  S
C874        C875   1.403       .  A
C875        C876   1.404       .  A
C875        H888   1.083       .  S
C876        C877   1.404       .  A
C876        H889   1.083       .  S
C877        C878   1.398       .  A
C877        C880   1.444       .  S
C879        H891   1.084       .  S
C880        C881   1.209       .  T
C881        C882   1.443       .  S
C882        C887   1.401       .  A
C883        C884   1.399       .  A
C883        H892   1.083       .  S
C884        H893   1.083       .  S
C885        C886   1.405       .  A
C886        C887   1.400       .  A
C886        H894   1.083       .  S
C887        H895   1.083       .  S
C896        C901   1.405       .  A
C897        C898   1.398       .  A
C897        H910   1.083       .  S
C898        C899   1.400       .  A
C898        H911   1.084       .  S
C899        C902   1.441       .  S
C900        C901   1.399       .  A
C900        H912   1.084       .  S
C901        H913   1.083       .  S
C902        C903   1.207       .  T
C903        C904   1.442       .  S
C904        C909   1.396       .  A
C905        C906   1.397       .  A
C905        H914   1.083       .  S
C906        C907   1.413       .  A
C906        H915   1.083       .  S
C908        C909   1.397       .  A
C908        H916   1.083       .  S
C909        H917   1.083       .  S
C918        C923   1.406       .  A
C919        C920   1.402       .  A
C919        H932   1.083       .  S
C920        C921   1.402   1_556  A
C920        H933   1.083       .  S
C921        C924   1.449       .  S
C922        C923   1.400       .  A
C922        H934   1.083       .  S
C923        H935   1.083       .  S
C924        C925   1.212       .  T
C925        C926   1.450       .  S
C926        C931   1.399   1_554  A
C927        C928   1.405       .  A
C927        H936   1.083       .  S
C928        C929   1.404       .  A
C928        H937   1.083       .  S
C930        C931   1.398       .  A
C930        H938   1.083       .  S
C931        H939   1.084       .  S
