geometry optimzed in LAMMPS
_audit_creation_date              2020-11-30 
_audit_creation_method            'lammps2cif' 
_symmetry_space_group_name_H-M    'P1' 
_symmetry_Int_Tables_number       1 
_symmetry_cell_setting            triclinic 
loop_ 
_symmetry_equiv_pos_as_xyz 
  x,y,z 
_cell_length_a                    27.78214038 
_cell_length_b                    27.722517621682105 
_cell_length_c                    33.71677593675594 
_cell_angle_alpha                 90.49475331408175 
_cell_angle_beta                  89.12909030028536 
_cell_angle_gamma                 119.48176426122099 
loop_ 
_atom_site_label 
_atom_site_type_symbol 
_atom_site_fract_x 
_atom_site_fract_y 
_atom_site_fract_z 
_atom_site_charge 
C1          C  0.30945576  0.19747757  0.49232181     0.79700
N2          N  0.27882491  0.14126434  0.99154202    -0.78600
C3          C  0.30364358  0.10919073  0.99090741     0.82200
N4          N  0.35979814  0.13445417  0.99266772    -0.78500
C5          C  0.39131755  0.19096002  0.49320227     0.82200
N6          N  0.36563569  0.22177995  0.49410684    -0.80300
C7          C  0.19797293  0.30597696  0.97870448     0.79700
N8          N  0.14195468  0.27616755  0.98111774    -0.78600
C9          C  0.11024156  0.30124743  0.98152512     0.82200
N10         N  0.13596157  0.35748906  0.98058953    -0.78500
C11         C  0.19236329  0.38885459  0.97839279     0.82200
N12         N  0.22265360  0.36249476  0.97784072    -0.80300
C13         C  0.30634546  0.31361790  0.04375708     0.86000
C14         C  0.24864107  0.30406869  0.03435071    -0.54300
C15         C  0.22973377  0.28223614  0.99776000     0.08900
C16         C  0.26861256  0.26515482  0.47550479     0.19900
C17         C  0.29991817  0.25596352  0.04055972    -0.55000
C18         C  0.28348459  0.23115860  0.00454074     0.09000
C19         C  0.34197618  0.34612338  0.00701228    -0.54500
C20         C  0.32217428  0.31989922  0.47135219     0.09600
H21         H  0.22855053  0.32312357  0.05069980     0.14100
H22         H  0.25095651  0.24336509  0.44713615    -0.00200
H23         H  0.31587591  0.23983457  0.06307521     0.14400
H24         H  0.37851338  0.38674342  0.00906842     0.14200
C25         C  0.50682466  0.19161445  0.04576945     0.86000
C26         C  0.05541264  0.24898160  0.03717339    -0.54300
C27         C  0.05459925  0.27027224  0.00101704     0.08900
C28         C  0.00010960  0.23314413  0.47834280     0.19900
C29         C  0.45566793  0.19787173  0.04250501    -0.55000
C30         C  0.44950248  0.21637703  0.00671959     0.09000
C31         C  0.50454059  0.15682486  0.00845355    -0.54500
C32         C  0.00138541  0.17940156  0.47345932     0.09600
H33         H  0.09252841  0.26631216  0.05507496     0.14100
H34         H  0.99744692  0.25236062  0.45029188    -0.00200
H35         H  0.42211060  0.17942395  0.06423566     0.14400
H36         H  0.50567456  0.11849526  0.00816026     0.14200
C37         C  0.18699125  0.99348932  0.04277086     0.86000
C38         C  0.19583450  0.44434985  0.03368374    -0.54300
C39         C  0.21742566  0.44504426  0.99703366     0.08900
C40         C  0.23556763  0.00032492  0.47443508     0.19900
C41         C  0.24457545  0.04341353  0.03915977    -0.55000
C42         C  0.26962632  0.05002239  0.00310793     0.09000
C43         C  0.15497538  0.99626233  0.00598009    -0.54500
C44         C  0.18130597  0.00072685  0.47013339     0.09600
H45         H  0.17532978  0.40584264  0.05006490     0.14100
H46         H  0.25767368  0.00219464  0.44634036    -0.00200
H47         H  0.26042653  0.07611727  0.06141973     0.14400
H48         H  0.11485004  0.49391783  0.00818383     0.14200
Fe49       Fe  0.43075895  0.50844936  0.25663613     1.65800
Fe50       Fe  0.49304340  0.42935987  0.25658150     1.73200
Fe51       Fe  0.07117904  0.06943776  0.25816950     1.54400
O52         O  0.04896030  0.11292677  0.21961398    -0.82200
O53         O  0.04174942  0.44754562  0.30533298    -0.80500
O54         O  0.45858829  0.05968529  0.20903934    -0.84700
O55         O  0.46121492  0.07310337  0.29718449    -0.79500
O56         O  0.09728841  0.04500725  0.20912990    -0.81300
O57         O  0.42723679  0.39654937  0.29680468    -0.84100
C58         C  0.00525406  0.09699457  0.31726707     0.96700
C59         C  0.50565953  0.09931476  0.19980147     1.04100
O60         O  0.49827974  0.50240433  0.25700868    -1.13000
O61         O  0.44339397  0.40480151  0.20822949    -0.75500
O62         O  0.39114012  0.44443633  0.21577271    -0.79000
O63         O  0.04942847  0.09770277  0.30677928    -0.79700
C64         C  0.40463799  0.41276899  0.19703241     0.95600
O65         O  0.39855133  0.45804998  0.30469616    -0.77600
O66         O  0.05838565  0.45357854  0.21611410    -0.82800
C67         C  0.08401152  0.49095576  0.31686686     0.98200
C68         C  0.08968302  0.99829322  0.19749983     1.04100
O69         O  0.10401936  0.03621740  0.29766308    -0.78500
C70         C  0.40069287  0.41591332  0.31607419     1.02400
C71         C  0.16006878  0.99310269  0.08310492    -0.00700
C72         C  0.15057793  0.45306428  0.11252205    -0.12500
C73         C  0.12818782  0.45388036  0.14982719     0.01600
C74         C  0.11616794  0.99635685  0.15940617    -0.00800
C75         C  0.12727371  0.03744185  0.13096709    -0.12500
C76         C  0.14823194  0.03596881  0.09330019     0.01500
H77         H  0.16176702  0.42140440  0.10791200     0.14400
H78         H  0.11839331  0.07058981  0.13781767     0.14400
C79         C  0.15771850  0.07981159  0.06600854     0.36100
C80         C  0.12001321  0.41157071  0.17812051     0.36000
N81         N  0.16510736  0.11500412  0.04432476    -0.44300
N82         N  0.11339953  0.37757406  0.20070143    -0.44300
C83         C  0.10960792  0.98982133  0.35509947    -0.00700
C84         C  0.16420220  0.03080109  0.36235288    -0.12500
C85         C  0.18880621  0.03445469  0.39895298     0.01600
C86         C  0.15735770  0.99916965  0.43061604    -0.00800
C87         C  0.10311453  0.45750063  0.42326183    -0.12500
C88         C  0.07979200  0.45127829  0.38573434     0.01500
H89         H  0.18840393  0.05950925  0.33892794     0.14400
H90         H  0.07960188  0.42806813  0.44651301     0.14400
C91         C  0.02609379  0.40367763  0.37967882     0.36100
C92         C  0.24703826  0.07312831  0.40171112     0.36000
N93         N  0.98382324  0.36432976  0.37498280    -0.44300
N94         N  0.29430118  0.10263741  0.40200987    -0.44300
C95         C  0.00179198  0.15666299  0.43402482    -0.00700
C96         C  0.46469936  0.15540048  0.40569241    -0.12500
C97         C  0.46615315  0.13843340  0.36681755     0.01600
C98         C  0.00486126  0.12146578  0.35612231    -0.00800
C99         C  0.04239443  0.12356070  0.38457049    -0.12500
C100        C  0.04146453  0.14125188  0.42312104     0.01500
H101        H  0.43461563  0.16802592  0.41390790     0.14400
H102        H  0.07236567  0.11054057  0.37694176     0.14400
C103        C  0.08309891  0.14509645  0.45014916     0.36100
C104        C  0.42833343  0.14001089  0.33862749     0.36000
N105        N  0.11652597  0.14806556  0.47165441    -0.44300
N106        N  0.39797817  0.14136255  0.31612440    -0.44300
C107        C  0.51040272  0.16955050  0.08642378    -0.00700
C108        C  0.00704152  0.11738522  0.09004578    -0.12500
C109        C  0.00673888  0.09532240  0.12688318     0.01600
C110        C  0.51075867  0.12544346  0.16149042    -0.00800
C111        C  0.51555097  0.17785363  0.15889256    -0.12500
C112        C  0.51500977  0.20001775  0.12179688     0.01500
H113        H  0.00291520  0.09169983  0.06486593     0.14400
H114        H  0.51811129  0.20067862  0.18581056     0.14400
C115        C  0.51826474  0.25367935  0.12111088     0.36100
C116        C  0.00116001  0.04070740  0.12840367     0.36000
N117        N  0.52102810  0.29671486  0.12053385    -0.44300
N118        N  0.99672195  0.99702311  0.12941450    -0.44300
C119        C  0.34375895  0.34468114  0.43179096    -0.00700
C120        C  0.34926656  0.39656420  0.42341681    -0.12500
C121        C  0.36368726  0.41917970  0.38522202     0.01600
C122        C  0.37435735  0.39007774  0.35458244    -0.00800
C123        C  0.36628217  0.33723509  0.36276118    -0.11700
C124        C  0.35164804  0.31465172  0.40070834     0.01500
H125        H  0.34083035  0.41890268  0.44658317     0.14400
H126        H  0.37354943  0.31400137  0.33963665     0.14400
C127        C  0.34847660  0.26185366  0.40633768     0.36100
C128        C  0.36617646  0.47173132  0.37871970     0.36000
N129        N  0.34750618  0.21980114  0.40814084    -0.44300
N130        N  0.36693571  0.51332083  0.37368921    -0.44300
C131        C  0.33155793  0.34104307  0.08371261    -0.00700
C132        C  0.30196980  0.35468381  0.11202353    -0.12500
C133        C  0.32428239  0.37764385  0.14898011     0.01600
C134        C  0.37688172  0.38616608  0.15929266    -0.00800
C135        C  0.40607459  0.37172086  0.13165989    -0.12500
C136        C  0.38481356  0.35063638  0.09426660     0.01500
H137        H  0.26083728  0.34727303  0.10658006     0.14400
H138        H  0.44693586  0.37854789  0.13873744     0.14400
C139        C  0.41929214  0.33958237  0.06735794     0.36100
C140        C  0.29133917  0.39068834  0.17592044     0.36000
N141        N  0.44734670  0.33125945  0.04593263    -0.44300
N142        N  0.26481879  0.40120981  0.19730602    -0.44300
C143        C  0.30941361  0.19746594  0.99232345     0.79700
N144        N  0.27886002  0.14127604  0.49153519    -0.78600
C145        C  0.30367125  0.10919502  0.49090364     0.82200
N146        N  0.35982430  0.13445013  0.49267221    -0.78500
C147        C  0.39128472  0.19096552  0.99319186     0.82200
N148        N  0.36559463  0.22177738  0.99409885    -0.80300
C149        C  0.19799883  0.30598099  0.47870136     0.79700
N150        N  0.14198148  0.27616672  0.48111712    -0.78600
C151        C  0.11026394  0.30124136  0.48152986     0.82200
N152        N  0.13597702  0.35748267  0.48059336    -0.78500
C153        C  0.19237759  0.38885470  0.47839214     0.82200
N154        N  0.22267383  0.36249979  0.47783932    -0.80300
C155        C  0.30637981  0.31363757  0.54374752     0.86000
C156        C  0.24866950  0.30407381  0.53434453    -0.54300
C157        C  0.22976276  0.28224027  0.49775433     0.08900
C158        C  0.26857922  0.26514613  0.97551098     0.19900
C159        C  0.29996679  0.25598884  0.54055220    -0.55000
C160        C  0.28353112  0.23117724  0.50453564     0.09000
C161        C  0.34200220  0.34614422  0.50700038    -0.54500
C162        C  0.32214860  0.31988509  0.97136181     0.09600
H163        H  0.22857370  0.32312248  0.55069427     0.14100
H164        H  0.25092185  0.24336035  0.94714148    -0.00200
H165        H  0.31593152  0.23986764  0.56306820     0.14400
H166        H  0.37853215  0.38677012  0.50905297     0.14200
C167        C  0.50686195  0.19160405  0.54578005     0.86000
C168        C  0.05544532  0.24897368  0.53718208    -0.54300
C169        C  0.05462614  0.27026065  0.50102533     0.08900
C170        C  0.00008080  0.23316127  0.97833285     0.19900
C171        C  0.45569971  0.19785285  0.54251482    -0.55000
C172        C  0.44953357  0.21636009  0.50673044     0.09000
C173        C  0.50458000  0.15681353  0.50846535    -0.54500
C174        C  0.00135191  0.17941746  0.97344784     0.09600
H175        H  0.09256224  0.26630953  0.55508265     0.14100
H176        H  0.99742176  0.25238110  0.95028247    -0.00200
H177        H  0.42214249  0.17940319  0.56424542     0.14400
H178        H  0.50571025  0.11848134  0.50817363     0.14200
C179        C  0.18701616  0.99350340  0.54277195     0.86000
C180        C  0.19584754  0.44435758  0.53367975    -0.54300
C181        C  0.21743400  0.44504892  0.49702827     0.08900
C182        C  0.23555781  0.00031819  0.97444062     0.19900
C183        C  0.24460364  0.04342121  0.53915701    -0.55000
C184        C  0.26964641  0.05002701  0.50310219     0.09000
C185        C  0.15499776  0.99628457  0.50598478    -0.54500
C186        C  0.18129187  0.00070845  0.97013245     0.09600
H187        H  0.17534557  0.40585279  0.55006169     0.14100
H188        H  0.25767067  0.00218866  0.94634939    -0.00200
H189        H  0.26046394  0.07612407  0.56141752     0.14400
H190        H  0.11487766  0.49395101  0.50819374     0.14200
Fe191      Fe  0.43076327  0.50843446  0.75664342     1.65800
Fe192      Fe  0.49304165  0.42933767  0.75658355     1.73200
Fe193      Fe  0.07118135  0.06941708  0.75818083     1.54400
O194        O  0.04896947  0.11291228  0.71962822    -0.82200
O195        O  0.04174500  0.44751239  0.80533237    -0.80500
O196        O  0.45859684  0.05967863  0.70905140    -0.84700
O197        O  0.46121830  0.07308420  0.79719461    -0.79500
O198        O  0.09729436  0.04499027  0.70914075    -0.81300
O199        O  0.42723669  0.39652816  0.79681129    -0.84100
C200        C  0.00526041  0.09698658  0.81727315     0.96700
C201        C  0.50567009  0.09930701  0.69981633     1.04100
O202        O  0.49828144  0.50238517  0.75701605    -1.13000
O203        O  0.44339526  0.40478564  0.70823209    -0.75500
O204        O  0.39114927  0.44442913  0.71577364    -0.79000
O205        O  0.04943279  0.09768705  0.80679002    -0.79700
C206        C  0.40464713  0.41276251  0.69703212     0.95600
O207        O  0.39855261  0.45803049  0.80470119    -0.77600
O208        O  0.05838457  0.45355933  0.71611314    -0.82800
C209        C  0.08400440  0.49092107  0.81686928     0.98200
C210        C  0.08968902  0.99827855  0.69750502     1.04100
O211        O  0.10401155  0.03618745  0.79767187    -0.78500
C212        C  0.40069685  0.41589636  0.81608195     1.02400
C213        C  0.16010216  0.99311867  0.58311099    -0.00700
C214        C  0.15060208  0.45307071  0.61252332    -0.12500
C215        C  0.12820037  0.45387534  0.64982694     0.01600
C216        C  0.11618545  0.99635316  0.65941240    -0.00800
C217        C  0.12731137  0.03745379  0.63098112    -0.12500
C218        C  0.14827559  0.03598927  0.59331390     0.01500
H219        H  0.16178651  0.42141055  0.60791034     0.14400
H220        H  0.11843911  0.07060534  0.63783679     0.14400
C221        C  0.15777532  0.07984342  0.56602911     0.36100
C222        C  0.12000204  0.41154665  0.67811023     0.36000
N223        N  0.16517457  0.11504510  0.54435095    -0.44300
N224        N  0.11336704  0.37753331  0.70068246    -0.44300
C225        C  0.10959924  0.98978042  0.85509837    -0.00700
C226        C  0.16419447  0.03075775  0.86234880    -0.12500
C227        C  0.18879660  0.03441700  0.89894918     0.01600
C228        C  0.15734618  0.99913785  0.93061353    -0.00800
C229        C  0.10310404  0.45746532  0.92326091    -0.12500
C230        C  0.07978121  0.45123967  0.88573383     0.01500
H231        H  0.18839709  0.05946206  0.83892218     0.14400
H232        H  0.07959111  0.42803631  0.94651386     0.14400
C233        C  0.02607818  0.40364363  0.87968154     0.36100
C234        C  0.24702869  0.07308974  0.90170655     0.36000
N235        N  0.98380264  0.36429991  0.87499028    -0.44300
N236        N  0.29429232  0.10259445  0.90200601    -0.44300
C237        C  0.00177884  0.15669014  0.93401306    -0.00700
C238        C  0.46469856  0.15542979  0.90567081    -0.12500
C239        C  0.46616630  0.13845974  0.86679894     0.01600
C240        C  0.00487139  0.12148180  0.85611865    -0.00800
C241        C  0.04240147  0.12358871  0.88457361    -0.12500
C242        C  0.04146044  0.14128653  0.92312013     0.01500
H243        H  0.43461311  0.16805714  0.91387648     0.14400
H244        H  0.07237605  0.11056947  0.87695422     0.14400
C245        C  0.08309097  0.14514314  0.95015694     0.36100
C246        C  0.42836645  0.14004679  0.83859500     0.36000
N247        N  0.11651391  0.14812361  0.97167106    -0.44300
N248        N  0.39803067  0.14140874  0.81607878    -0.44300
C249        C  0.51044314  0.16954572  0.58643573    -0.00700
C250        C  0.00709992  0.11738886  0.59006055    -0.12500
C251        C  0.00678272  0.09532351  0.62689970     0.01600
C252        C  0.51077657  0.12543710  0.66150565    -0.00800
C253        C  0.51555966  0.17784284  0.65890550    -0.12500
C254        C  0.51503119  0.20000852  0.62180789     0.01500
H255        H  0.00300005  0.09171151  0.56488013     0.14400
H256        H  0.51810396  0.20066335  0.68582277     0.14400
C257        C  0.51827994  0.25366716  0.62111866     0.36100
C258        C  0.00121255  0.04071237  0.62842428     0.36000
N259        N  0.52103872  0.29670057  0.62053958    -0.44300
N260        N  0.99677995  0.99703062  0.62944027    -0.44300
C261        C  0.34374763  0.34466776  0.93180158    -0.00700
C262        C  0.34929409  0.39656799  0.92343195    -0.12500
C263        C  0.36372158  0.41918438  0.88523735     0.01600
C264        C  0.37436681  0.39006909  0.85459398    -0.00800
C265        C  0.36626285  0.33721560  0.86276952    -0.11700
C266        C  0.35161339  0.31462767  0.90071486     0.01500
H267        H  0.34087655  0.41891727  0.94660048     0.14400
H268        H  0.37351102  0.31397239  0.83964207     0.14400
C269        C  0.34838935  0.26180532  0.90633534     0.36100
C270        C  0.36623526  0.47174764  0.87873759     0.36000
N271        N  0.34737082  0.21972962  0.90813064    -0.44300
N272        N  0.36701093  0.51334539  0.87370901    -0.44300
C273        C  0.33159130  0.34106793  0.58370155    -0.00700
C274        C  0.30199678  0.35469861  0.61201393    -0.12500
C275        C  0.32430307  0.37764964  0.64897340     0.01600
C276        C  0.37690142  0.38617249  0.65928726    -0.00800
C277        C  0.40610379  0.37174296  0.63165149    -0.12500
C278        C  0.38485030  0.35067033  0.59425437     0.01500
H279        H  0.26086403  0.34728577  0.60657034     0.14400
H280        H  0.44696585  0.37857327  0.63873006     0.14400
C281        C  0.41933891  0.33963788  0.56734017     0.36100
C282        C  0.29135445  0.39068281  0.67591667     0.36000
N283        N  0.44739970  0.33133271  0.54590862    -0.44300
N284        N  0.26483275  0.40119679  0.69730651    -0.44300
C285        C  0.30945539  0.69747775  0.49232261     0.79700
N286        N  0.27882440  0.64126454  0.99154277    -0.78600
C287        C  0.30364285  0.60919073  0.99090841     0.82200
N288        N  0.35979743  0.63445401  0.99266914    -0.78500
C289        C  0.39131698  0.69095983  0.49320371     0.82200
N290        N  0.36563528  0.72177993  0.49410797    -0.80300
C291        C  0.19797269  0.80597690  0.97870503     0.79700
N292        N  0.14195440  0.77616768  0.98111841    -0.78600
C293        C  0.11024144  0.80124775  0.98152549     0.82200
N294        N  0.13596172  0.85748940  0.98058960    -0.78500
C295        C  0.19236348  0.88885466  0.97839270     0.82200
N296        N  0.22265356  0.86249464  0.97784081    -0.80300
C297        C  0.30634453  0.81361744  0.04375848     0.86000
C298        C  0.24864034  0.80406851  0.03435169    -0.54300
C299        C  0.22973358  0.78223634  0.99776075     0.08900
C300        C  0.26861288  0.76515568  0.47550563     0.19900
C301        C  0.29991726  0.75596312  0.04056065    -0.55000
C302        C  0.28348437  0.73115890  0.00454142     0.09000
C303        C  0.34197588  0.84612370  0.00701411    -0.54500
C304        C  0.32217463  0.81990032  0.47135373     0.09600
H305        H  0.22854978  0.82312339  0.05070076     0.14100
H306        H  0.25095738  0.74336650  0.44713674    -0.00200
H307        H  0.31587445  0.73983363  0.06307616     0.14400
H308        H  0.37851305  0.88674369  0.00907078     0.14200
C309        C  0.50682529  0.69161573  0.04577061     0.86000
C310        C  0.05541288  0.74898294  0.03717410    -0.54300
C311        C  0.05459911  0.77027293  0.00101759     0.08900
C312        C  0.00010917  0.73314423  0.47834378     0.19900
C313        C  0.45566818  0.69787242  0.04250624    -0.55000
C314        C  0.44950218  0.71637710  0.00672072     0.09000
C315        C  0.50454087  0.65682564  0.00845490    -0.54500
C316        C  0.00138531  0.67940179  0.47346056     0.09600
H317        H  0.09252881  0.76631396  0.05507552     0.14100
H318        H  0.99744600  0.75236023  0.45029276    -0.00200
H319        H  0.42211108  0.67942474  0.06423707     0.14400
H320        H  0.50567433  0.61849575  0.00816182     0.14200
C321        C  0.18698958  0.49348855  0.04277101     0.86000
C322        C  0.19583558  0.94435033  0.03368357    -0.54300
C323        C  0.21742631  0.94504438  0.99703343     0.08900
C324        C  0.23556660  0.50032483  0.47443539     0.19900
C325        C  0.24457367  0.54341303  0.03916021    -0.55000
C326        C  0.26962501  0.55002222  0.00310854     0.09000
C327        C  0.15497386  0.49626143  0.00598019    -0.54500
C328        C  0.18130460  0.50072619  0.47013356     0.09600
H329        H  0.17533035  0.90584309  0.05006488     0.14100
H330        H  0.25767288  0.50219495  0.44634069    -0.00200
H331        H  0.26042448  0.57611656  0.06142032     0.14400
H332        H  0.11485176  0.99391915  0.00818386     0.14200
Fe333      Fe  0.43076000  0.00844991  0.25663641     1.65800
Fe334      Fe  0.49304413  0.92936054  0.25658202     1.73200
Fe335      Fe  0.07117812  0.56943739  0.25817038     1.54400
O336        O  0.04896082  0.61292731  0.21961489    -0.82200
O337        O  0.04175031  0.94754709  0.30533336    -0.80500
O338        O  0.45858850  0.55968806  0.20904080    -0.84700
O339        O  0.46121194  0.57309978  0.29718662    -0.79500
O340        O  0.09728843  0.54500757  0.20913070    -0.81300
O341        O  0.42723737  0.89655119  0.29680556    -0.84100
C342        C  0.00525154  0.59699225  0.31726860     0.96700
C343        C  0.50566007  0.59931692  0.19980292     1.04100
O344        O  0.49828070  0.00240484  0.25700862    -1.13000
O345        O  0.44339459  0.90480194  0.20823018    -0.75500
O346        O  0.39113843  0.94443385  0.21577528    -0.79000
O347        O  0.04942655  0.59770202  0.30678015    -0.79700
C348        C  0.40463704  0.91276760  0.19703418     0.95600
O349        O  0.39855475  0.95805387  0.30469839    -0.77600
O350        O  0.05838654  0.95357841  0.21611431    -0.82800
C351        C  0.08401289  0.99095717  0.31686666     0.98200
C352        C  0.08968254  0.49829354  0.19750009     1.04100
O353        O  0.10401758  0.53621649  0.29766401    -0.78500
C354        C  0.40069531  0.91591652  0.31607604     1.02400
C355        C  0.16006663  0.49310182  0.08310485    -0.00700
C356        C  0.15058179  0.95306615  0.11252258    -0.12500
C357        C  0.12819150  0.95388197  0.14982774     0.01600
C358        C  0.11616709  0.49635698  0.15940634    -0.00800
C359        C  0.12727394  0.53744258  0.13096752    -0.12500
C360        C  0.14823084  0.53596861  0.09330028     0.01500
H361        H  0.16177310  0.92140756  0.10791287     0.14400
H362        H  0.11839494  0.57059135  0.13781842     0.14400
C363        C  0.15771659  0.57981078  0.06600828     0.36100
C364        C  0.12002073  0.91157487  0.17812218     0.36000
N365        N  0.16510457  0.61500256  0.04432405    -0.44300
N366        N  0.11341062  0.87758055  0.20070413    -0.44300
C367        C  0.10960653  0.48981961  0.35509957    -0.00700
C368        C  0.16420069  0.53079967  0.36235304    -0.12500
C369        C  0.18880454  0.53445377  0.39895326     0.01600
C370        C  0.15735618  0.49916853  0.43061622    -0.00800
C371        C  0.10311591  0.95750216  0.42326171    -0.12500
C372        C  0.07979334  0.95128003  0.38573428     0.01500
H373        H  0.18840233  0.55950797  0.33892815     0.14400
H374        H  0.07960320  0.92806966  0.44651288     0.14400
C375        C  0.02609509  0.90367944  0.37967887     0.36100
C376        C  0.24703619  0.57312872  0.40171186     0.36000
N377        N  0.98382452  0.86433156  0.37498296    -0.44300
N378        N  0.29429884  0.60263917  0.40201107    -0.44300
C379        C  0.00179103  0.65666234  0.43402620    -0.00700
C380        C  0.46469790  0.65539924  0.40569401    -0.12500
C381        C  0.46615083  0.63843117  0.36681930     0.01600
C382        C  0.00485876  0.62146333  0.35612393    -0.00800
C383        C  0.04239221  0.62355851  0.38457195    -0.12500
C384        C  0.04146307  0.64125056  0.42312236     0.01500
H385        H  0.43461441  0.66802503  0.41390954     0.14400
H386        H  0.07236319  0.61053804  0.37694313     0.14400
C387        C  0.08309775  0.64509537  0.45015027     0.36100
C388        C  0.42833050  0.64000804  0.33862949     0.36000
N389        N  0.11652499  0.64806468  0.47165542    -0.44300
N390        N  0.39797461  0.64135920  0.31612674    -0.44300
C391        C  0.51040425  0.66955261  0.08642506    -0.00700
C392        C  0.00704484  0.61738818  0.09004727    -0.12500
C393        C  0.00674167  0.59532538  0.12688476     0.01600
C394        C  0.51075973  0.62544592  0.16149194    -0.00800
C395        C  0.51555132  0.67785577  0.15889390    -0.12500
C396        C  0.51501059  0.70001983  0.12179806     0.01500
H397        H  0.00292039  0.59170329  0.06486743     0.14400
H398        H  0.51811085  0.70068060  0.18581182     0.14400
C399        C  0.51826590  0.75368157  0.12111176     0.36100
C400        C  0.00116339  0.54071063  0.12840540     0.36000
N401        N  0.52102983  0.79671734  0.12053450    -0.44300
N402        N  0.99672552  0.49702642  0.12941632    -0.44300
C403        C  0.34376017  0.84468314  0.43179276    -0.00700
C404        C  0.34926844  0.89656658  0.42341894    -0.12500
C405        C  0.36369008  0.91918285  0.38522435     0.01600
C406        C  0.37436021  0.89008112  0.35458456    -0.00800
C407        C  0.36628444  0.83723819  0.36276302    -0.11700
C408        C  0.35164969  0.81465423  0.40070998     0.01500
H409        H  0.34083201  0.91890479  0.44658541     0.14400
H410        H  0.37355162  0.81400453  0.33963837     0.14400
C411        C  0.34847786  0.76185594  0.40633900     0.36100
C412        C  0.36617993  0.97173487  0.37872248     0.36000
N413        N  0.34750711  0.71980326  0.40814197    -0.44300
N414        N  0.36693964  0.01332473  0.37369263    -0.44300
C415        C  0.33155645  0.84104164  0.08371439    -0.00700
C416        C  0.30196794  0.85468157  0.11202556    -0.12500
C417        C  0.32428049  0.87764138  0.14898229     0.01600
C418        C  0.37688004  0.88616399  0.15929470    -0.00800
C419        C  0.40607281  0.87171875  0.13166184    -0.12500
C420        C  0.38481194  0.85063470  0.09426846     0.01500
H421        H  0.26083532  0.84727042  0.10658204     0.14400
H422        H  0.44693405  0.87854570  0.13873927     0.14400
C423        C  0.41929072  0.83958100  0.06735979     0.36100
C424        C  0.29133713  0.89068543  0.17592278     0.36000
N425        N  0.44734554  0.83125836  0.04593455    -0.44300
N426        N  0.26481659  0.90120654  0.19730846    -0.44300
C427        C  0.30941327  0.69746613  0.99232420     0.79700
N428        N  0.27885947  0.64127623  0.49153593    -0.78600
C429        C  0.30367046  0.60919500  0.49090462     0.82200
N430        N  0.35982352  0.63444991  0.49267365    -0.78500
C431        C  0.39128420  0.69096539  0.99319321     0.82200
N432        N  0.36559426  0.72177740  0.99409986    -0.80300
C433        C  0.19799856  0.80598094  0.47870193     0.79700
N434        N  0.14198118  0.77616687  0.48111783    -0.78600
C435        C  0.11026380  0.80124172  0.48153030     0.82200
N436        N  0.13597718  0.85748305  0.48059351    -0.78500
C437        C  0.19237779  0.88885480  0.47839209     0.82200
N438        N  0.22267378  0.86249967  0.47783941    -0.80300
C439        C  0.30637884  0.81363709  0.54374895     0.86000
C440        C  0.24866874  0.80407364  0.53434553    -0.54300
C441        C  0.22976254  0.78224048  0.49775510     0.08900
C442        C  0.26857956  0.76514699  0.97551179     0.19900
C443        C  0.29996582  0.75598841  0.54055317    -0.55000
C444        C  0.28353085  0.73117753  0.50453636     0.09000
C445        C  0.34200188  0.84614452  0.50700225    -0.54500
C446        C  0.32214896  0.81988620  0.97136329     0.09600
H447        H  0.22857292  0.82312236  0.55069525     0.14100
H448        H  0.25092273  0.74336176  0.94714203    -0.00200
H449        H  0.31592996  0.73986666  0.56306920     0.14400
H450        H  0.37853180  0.88677037  0.50905539     0.14200
C451        C  0.50686263  0.69160532  0.54578125     0.86000
C452        C  0.05544556  0.74897504  0.53718286    -0.54300
C453        C  0.05462598  0.77026138  0.50102596     0.08900
C454        C  0.00008038  0.73316135  0.97833375     0.19900
C455        C  0.45569994  0.69785341  0.54251611    -0.55000
C456        C  0.44953323  0.71636005  0.50673164     0.09000
C457        C  0.50458044  0.65681437  0.50846673    -0.54500
C458        C  0.00135171  0.67941763  0.97344905     0.09600
H459        H  0.09256264  0.76631137  0.55508328     0.14100
H460        H  0.99742088  0.75238068  0.95028326    -0.00200
H461        H  0.42214297  0.67940380  0.56424689     0.14400
H462        H  0.50571028  0.61848196  0.50817520     0.14200
C463        C  0.18701439  0.49350261  0.54277204     0.86000
C464        C  0.19584871  0.94435809  0.53367964    -0.54300
C465        C  0.21743472  0.94504907  0.49702809     0.08900
C466        C  0.23555687  0.50031813  0.97444098     0.19900
C467        C  0.24460175  0.54342068  0.53915740    -0.55000
C468        C  0.26964500  0.55002682  0.50310275     0.09000
C469        C  0.15499614  0.49628364  0.50598483    -0.54500
C470        C  0.18129060  0.50070783  0.97013268     0.09600
H471        H  0.17534621  0.90585327  0.55006173     0.14100
H472        H  0.25766995  0.50218900  0.94634977    -0.00200
H473        H  0.26046178  0.57612333  0.56141805     0.14400
H474        H  0.11487946  0.99395235  0.50819382     0.14200
Fe475      Fe  0.43076431  0.00843507  0.75664370     1.65800
Fe476      Fe  0.49304238  0.92933841  0.75658403     1.73200
Fe477      Fe  0.07118046  0.56941669  0.75818175     1.54400
O478        O  0.04897004  0.61291279  0.71962917    -0.82200
O479        O  0.04174588  0.94751387  0.80533268    -0.80500
O480        O  0.45859709  0.55968126  0.70905283    -0.84700
O481        O  0.46121537  0.57308062  0.79719670    -0.79500
O482        O  0.09729440  0.54499054  0.70914159    -0.81300
O483        O  0.42723731  0.89653002  0.79681213    -0.84100
C484        C  0.00525792  0.59698427  0.81727467     0.96700
C485        C  0.50567066  0.59930906  0.69981778     1.04100
O486        O  0.49828239  0.00238575  0.75701594    -1.13000
O487        O  0.44339584  0.90478612  0.70823277    -0.75500
O488        O  0.39114759  0.94442676  0.71577617    -0.79000
O489        O  0.04943089  0.59768629  0.80679091    -0.79700
C490        C  0.40464615  0.91276119  0.69703387     0.95600
O491        O  0.39855602  0.95803438  0.80470338    -0.77600
O492        O  0.05838544  0.95355924  0.71611332    -0.82800
C493        C  0.08400578  0.99092250  0.81686900     0.98200
C494        C  0.08968854  0.49827883  0.69750531     1.04100
O495        O  0.10400977  0.53618652  0.79767286    -0.78500
C496        C  0.40069929  0.91589956  0.81608375     1.02400
C497        C  0.16009993  0.49311779  0.58311087    -0.00700
C498        C  0.15060603  0.95307262  0.61252390    -0.12500
C499        C  0.12820411  0.95387698  0.64982753     0.01600
C500        C  0.11618456  0.49635326  0.65941256    -0.00800
C501        C  0.12731159  0.53745451  0.63098156    -0.12500
C502        C  0.14827445  0.53598908  0.59331398     0.01500
H503        H  0.16179269  0.92141375  0.60791129     0.14400
H504        H  0.11844077  0.57060690  0.63783758     0.14400
C505        C  0.15777345  0.57984267  0.56602888     0.36100
C506        C  0.12000959  0.91155087  0.67811197     0.36000
N507        N  0.16517191  0.61504368  0.54435031    -0.44300
N508        N  0.11337811  0.87753989  0.70068528    -0.44300
C509        C  0.10959788  0.48977871  0.85509854    -0.00700
C510        C  0.16419296  0.53075640  0.86234905    -0.12500
C511        C  0.18879497  0.53441613  0.89894952     0.01600
C512        C  0.15734474  0.49913675  0.93061377    -0.00800
C513        C  0.10310532  0.95746687  0.92326074    -0.12500
C514        C  0.07978249  0.95124145  0.88573371     0.01500
H515        H  0.18839546  0.55946088  0.83892248     0.14400
H516        H  0.07959228  0.92803791  0.94651368     0.14400
C517        C  0.02607937  0.90364553  0.87968153     0.36100
C518        C  0.24702667  0.57309016  0.90170732     0.36000
N519        N  0.98380377  0.86430184  0.87499041    -0.44300
N520        N  0.29429004  0.60259617  0.90200720    -0.44300
C521        C  0.00177776  0.65668938  0.93401443    -0.00700
C522        C  0.46469703  0.65542850  0.90567237    -0.12500
C523        C  0.46616396  0.63845747  0.86680065     0.01600
C524        C  0.00486889  0.62147934  0.85612026    -0.00800
C525        C  0.04239920  0.62358647  0.88457508    -0.12500
C526        C  0.04145886  0.64128508  0.92312148     0.01500
H527        H  0.43461185  0.66805617  0.91387806     0.14400
H528        H  0.07237354  0.61056691  0.87695562     0.14400
C529        C  0.08308957  0.64514182  0.95015813     0.36100
C530        C  0.42836355  0.64004393  0.83859694     0.36000
N531        N  0.11651260  0.64812237  0.97167219    -0.44300
N532        N  0.39802719  0.64140542  0.81608103    -0.44300
C533        C  0.51044474  0.66954780  0.58643704    -0.00700
C534        C  0.00710330  0.61739177  0.59006205    -0.12500
C535        C  0.00678559  0.59532644  0.62690128     0.01600
C536        C  0.51077769  0.62543947  0.66150717    -0.00800
C537        C  0.51556001  0.67784488  0.65890687    -0.12500
C538        C  0.51503201  0.70001052  0.62180912     0.01500
H539        H  0.00300524  0.59171493  0.56488166     0.14400
H540        H  0.51810348  0.70066517  0.68582407     0.14400
C541        C  0.51828095  0.75366925  0.62111961     0.36100
C542        C  0.00121601  0.54071555  0.62842601     0.36000
N543        N  0.52104018  0.79670285  0.62054031    -0.44300
N544        N  0.99678362  0.49703389  0.62944205    -0.44300
C545        C  0.34374886  0.84466974  0.93180332    -0.00700
C546        C  0.34929606  0.89657039  0.92343405    -0.12500
C547        C  0.36372446  0.91918755  0.88523964     0.01600
C548        C  0.37436966  0.89007247  0.85459603    -0.00800
C549        C  0.36626506  0.83721866  0.86277129    -0.11700
C550        C  0.35161498  0.81463013  0.90071644     0.01500
H551        H  0.34087836  0.91891942  0.94660269     0.14400
H552        H  0.37351310  0.81397551  0.83964372     0.14400
C553        C  0.34839053  0.76180755  0.90633657     0.36100
C554        C  0.36623881  0.97175121  0.87874034     0.36000
N555        N  0.34737169  0.71973168  0.90813166    -0.44300
N556        N  0.36701492  0.01334931  0.87371240    -0.44300
C557        C  0.33158976  0.84106647  0.58370336    -0.00700
C558        C  0.30199488  0.85469635  0.61201598    -0.12500
C559        C  0.32430111  0.87764718  0.64897558     0.01600
C560        C  0.37689971  0.88617044  0.65928930    -0.00800
C561        C  0.40610195  0.87174087  0.63165346    -0.12500
C562        C  0.38484863  0.85066862  0.59425628     0.01500
H563        H  0.26086196  0.84728311  0.60657234     0.14400
H564        H  0.44696403  0.87857111  0.63873192     0.14400
C565        C  0.41933740  0.83963636  0.56734211     0.36100
C566        C  0.29135235  0.89067992  0.67591900     0.36000
N567        N  0.44739844  0.83133136  0.54591068    -0.44300
N568        N  0.26483044  0.90119352  0.69730892    -0.44300
C569        C  0.80945574  0.19747755  0.49232181     0.79700
N570        N  0.77882491  0.14126434  0.99154202    -0.78600
C571        C  0.80364357  0.10919072  0.99090741     0.82200
N572        N  0.85979814  0.13445417  0.99266772    -0.78500
C573        C  0.89131754  0.19096001  0.49320226     0.82200
N574        N  0.86563567  0.22177993  0.49410684    -0.80300
C575        C  0.69797292  0.30597694  0.97870447     0.79700
N576        N  0.64195467  0.27616753  0.98111774    -0.78600
C577        C  0.61024156  0.30124741  0.98152511     0.82200
N578        N  0.63596156  0.35748904  0.98058951    -0.78500
C579        C  0.69236328  0.38885457  0.97839278     0.82200
N580        N  0.72265359  0.36249474  0.97784071    -0.80300
C581        C  0.80634545  0.31361790  0.04375708     0.86000
C582        C  0.74864106  0.30406868  0.03435071    -0.54300
C583        C  0.72973376  0.28223613  0.99776000     0.08900
C584        C  0.76861253  0.26515478  0.47550480     0.19900
C585        C  0.79991816  0.25596352  0.04055972    -0.55000
C586        C  0.78348460  0.23115860  0.00454074     0.09000
C587        C  0.84197617  0.34612338  0.00701228    -0.54500
C588        C  0.82217426  0.31989917  0.47135219     0.09600
H589        H  0.72855052  0.32312356  0.05069980     0.14100
H590        H  0.75095648  0.24336504  0.44713617    -0.00200
H591        H  0.81587591  0.23983457  0.06307521     0.14400
H592        H  0.87851337  0.38674343  0.00906842     0.14200
C593        C  0.00682467  0.19161446  0.04576945     0.86000
C594        C  0.55541264  0.24898159  0.03717338    -0.54300
C595        C  0.55459925  0.27027223  0.00101703     0.08900
C596        C  0.50010960  0.23314413  0.47834280     0.19900
C597        C  0.95566793  0.19787171  0.04250500    -0.55000
C598        C  0.94950248  0.21637703  0.00671959     0.09000
C599        C  0.00454061  0.15682487  0.00845355    -0.54500
C600        C  0.50138540  0.17940155  0.47345932     0.09600
H601        H  0.59252841  0.26631215  0.05507495     0.14100
H602        H  0.49744691  0.25236062  0.45029188    -0.00200
H603        H  0.92211059  0.17942393  0.06423565     0.14400
H604        H  0.00567460  0.11849528  0.00816026     0.14200
C605        C  0.68699125  0.99348932  0.04277086     0.86000
C606        C  0.69583448  0.44434982  0.03368373    -0.54300
C607        C  0.71742565  0.44504423  0.99703366     0.08900
C608        C  0.73556762  0.00032490  0.47443508     0.19900
C609        C  0.74457544  0.04341353  0.03915977    -0.55000
C610        C  0.76962632  0.05002239  0.00310793     0.09000
C611        C  0.65497537  0.99626233  0.00598010    -0.54500
C612        C  0.68130596  0.00072683  0.47013338     0.09600
H613        H  0.67532977  0.40584261  0.05006489     0.14100
H614        H  0.75767367  0.00219462  0.44634036    -0.00200
H615        H  0.76042653  0.07611727  0.06141973     0.14400
H616        H  0.61485003  0.49391781  0.00818383     0.14200
Fe617      Fe  0.93075893  0.50844935  0.25663613     1.65800
Fe618      Fe  0.99304338  0.42935985  0.25658149     1.73200
Fe619      Fe  0.57117904  0.06943775  0.25816950     1.54400
O620        O  0.54896028  0.11292677  0.21961399    -0.82200
O621        O  0.54174944  0.44754564  0.30533299    -0.80500
O622        O  0.95858829  0.05968533  0.20903936    -0.84700
O623        O  0.96121490  0.07310335  0.29718451    -0.79500
O624        O  0.59728839  0.04500723  0.20912989    -0.81300
O625        O  0.92723677  0.39654934  0.29680468    -0.84100
C626        C  0.50525406  0.09699457  0.31726707     0.96700
C627        C  0.00565954  0.09931478  0.19980147     1.04100
O628        O  0.99827972  0.50240432  0.25700869    -1.13000
O629        O  0.94339395  0.40480150  0.20822948    -0.75500
O630        O  0.89114011  0.44443633  0.21577270    -0.79000
O631        O  0.54942847  0.09770275  0.30677929    -0.79700
C632        C  0.90463798  0.41276898  0.19703241     0.95600
O633        O  0.89855130  0.45804994  0.30469616    -0.77600
O634        O  0.55838567  0.45357855  0.21611411    -0.82800
C635        C  0.58401154  0.49095578  0.31686687     0.98200
C636        C  0.58968303  0.99829321  0.19749984     1.04100
O637        O  0.60401936  0.03621737  0.29766307    -0.78500
C638        C  0.90069285  0.41591329  0.31607419     1.02400
C639        C  0.66006878  0.99310268  0.08310493    -0.00700
C640        C  0.65057790  0.45306423  0.11252205    -0.12500
C641        C  0.62818782  0.45388034  0.14982720     0.01600
C642        C  0.61616795  0.99635683  0.15940618    -0.00800
C643        C  0.62727372  0.03744184  0.13096711    -0.12500
C644        C  0.64823194  0.03596880  0.09330020     0.01500
H645        H  0.66176696  0.42140434  0.10791199     0.14400
H646        H  0.61839333  0.07058980  0.13781768     0.14400
C647        C  0.65771849  0.07981158  0.06600855     0.36100
C648        C  0.62001320  0.41157070  0.17812052     0.36000
N649        N  0.66510734  0.11500411  0.04432478    -0.44300
N650        N  0.61339953  0.37757405  0.20070144    -0.44300
C651        C  0.60960791  0.98982129  0.35509946    -0.00700
C652        C  0.66420220  0.03080104  0.36235286    -0.12500
C653        C  0.68880621  0.03445465  0.39895296     0.01600
C654        C  0.65735769  0.99916962  0.43061603    -0.00800
C655        C  0.60311454  0.45750065  0.42326183    -0.12500
C656        C  0.57979201  0.45127832  0.38573434     0.01500
H657        H  0.68840393  0.05950918  0.33892792     0.14400
H658        H  0.57960190  0.42806816  0.44651301     0.14400
C659        C  0.52609381  0.40367765  0.37967882     0.36100
C660        C  0.74703825  0.07312828  0.40171110     0.36000
N661        N  0.48382326  0.36432978  0.37498280    -0.44300
N662        N  0.79430118  0.10263739  0.40200986    -0.44300
C663        C  0.50179197  0.15666298  0.43402482    -0.00700
C664        C  0.96469936  0.15540048  0.40569242    -0.12500
C665        C  0.96615315  0.13843340  0.36681756     0.01600
C666        C  0.50486125  0.12146578  0.35612230    -0.00800
C667        C  0.54239442  0.12356070  0.38457049    -0.12500
C668        C  0.54146452  0.14125188  0.42312103     0.01500
H669        H  0.93461563  0.16802592  0.41390791     0.14400
H670        H  0.57236566  0.11054057  0.37694175     0.14400
C671        C  0.58309891  0.14509644  0.45014915     0.36100
C672        C  0.92833343  0.14001090  0.33862749     0.36000
N673        N  0.61652596  0.14806555  0.47165441    -0.44300
N674        N  0.89797817  0.14136255  0.31612441    -0.44300
C675        C  0.01040272  0.16955051  0.08642379    -0.00700
C676        C  0.50704151  0.11738521  0.09004577    -0.12500
C677        C  0.50673887  0.09532238  0.12688318     0.01600
C678        C  0.01075867  0.12544348  0.16149043    -0.00800
C679        C  0.01555096  0.17785364  0.15889257    -0.12500
C680        C  0.01500974  0.20001775  0.12179689     0.01500
H681        H  0.50291518  0.09169981  0.06486593     0.14400
H682        H  0.01811126  0.20067863  0.18581056     0.14400
C683        C  0.01826461  0.25367930  0.12111088     0.36100
C684        C  0.50116001  0.04070739  0.12840366     0.36000
N685        N  0.02102788  0.29671477  0.12053385    -0.44300
N686        N  0.49672196  0.99702310  0.12941449    -0.44300
C687        C  0.84375891  0.34468109  0.43179095    -0.00700
C688        C  0.84926653  0.39656415  0.42341681    -0.12500
C689        C  0.86368724  0.41917965  0.38522202     0.01600
C690        C  0.87435732  0.39007769  0.35458244    -0.00800
C691        C  0.86628213  0.33723504  0.36276117    -0.11700
C692        C  0.85164800  0.31465167  0.40070833     0.01500
H693        H  0.84083033  0.41890264  0.44658317     0.14400
H694        H  0.87354939  0.31400132  0.33963664     0.14400
C695        C  0.84847655  0.26185360  0.40633767     0.36100
C696        C  0.86617645  0.47173128  0.37871970     0.36000
N697        N  0.84750612  0.21980108  0.40814083    -0.44300
N698        N  0.86693571  0.51332080  0.37368921    -0.44300
C699        C  0.83155793  0.34104307  0.08371261    -0.00700
C700        C  0.80196979  0.35468381  0.11202353    -0.12500
C701        C  0.82428238  0.37764385  0.14898011     0.01600
C702        C  0.87688171  0.38616608  0.15929266    -0.00800
C703        C  0.90607458  0.37172086  0.13165989    -0.12500
C704        C  0.88481356  0.35063638  0.09426660     0.01500
H705        H  0.76083728  0.34727303  0.10658005     0.14400
H706        H  0.94693585  0.37854789  0.13873743     0.14400
C707        C  0.91929213  0.33958237  0.06735793     0.36100
C708        C  0.79133916  0.39068833  0.17592043     0.36000
N709        N  0.94734669  0.33125945  0.04593263    -0.44300
N710        N  0.76481878  0.40120981  0.19730602    -0.44300
C711        C  0.80941361  0.19746594  0.99232345     0.79700
N712        N  0.77886000  0.14127601  0.49153520    -0.78600
C713        C  0.80367124  0.10919500  0.49090364     0.82200
N714        N  0.85982430  0.13445011  0.49267220    -0.78500
C715        C  0.89128472  0.19096551  0.99319185     0.82200
N716        N  0.86559463  0.22177738  0.99409885    -0.80300
C717        C  0.69799883  0.30598097  0.47870136     0.79700
N718        N  0.64198148  0.27616670  0.48111711    -0.78600
C719        C  0.61026393  0.30124134  0.48152985     0.82200
N720        N  0.63597702  0.35748265  0.48059335    -0.78500
C721        C  0.69237759  0.38885468  0.47839214     0.82200
N722        N  0.72267383  0.36249976  0.47783932    -0.80300
C723        C  0.80637980  0.31363755  0.54374752     0.86000
C724        C  0.74866948  0.30407378  0.53434453    -0.54300
C725        C  0.72976274  0.28224024  0.49775434     0.08900
C726        C  0.76857921  0.26514612  0.97551098     0.19900
C727        C  0.79996678  0.25598882  0.54055221    -0.55000
C728        C  0.78353110  0.23117721  0.50453565     0.09000
C729        C  0.84200218  0.34614418  0.50700037    -0.54500
C730        C  0.82214859  0.31988509  0.97136181     0.09600
H731        H  0.72857369  0.32312246  0.55069427     0.14100
H732        H  0.75092185  0.24336034  0.94714148    -0.00200
H733        H  0.81593151  0.23986762  0.56306821     0.14400
H734        H  0.87853213  0.38677009  0.50905296     0.14200
C735        C  0.00686194  0.19160406  0.54578005     0.86000
C736        C  0.55544534  0.24897366  0.53718207    -0.54300
C737        C  0.55462614  0.27026064  0.50102533     0.08900
C738        C  0.50008079  0.23316126  0.97833285     0.19900
C739        C  0.95569969  0.19785285  0.54251481    -0.55000
C740        C  0.94953356  0.21636009  0.50673043     0.09000
C741        C  0.00458001  0.15681355  0.50846535    -0.54500
C742        C  0.50135188  0.17941744  0.97344784     0.09600
H743        H  0.59256226  0.26630951  0.55508264     0.14100
H744        H  0.49742175  0.25238109  0.95028247    -0.00200
H745        H  0.92214247  0.17940318  0.56424541     0.14400
H746        H  0.00571025  0.11848135  0.50817363     0.14200
C747        C  0.68701614  0.99350338  0.54277194     0.86000
C748        C  0.69584754  0.44435755  0.53367975    -0.54300
C749        C  0.71743400  0.44504890  0.49702827     0.08900
C750        C  0.73555780  0.00031818  0.97444062     0.19900
C751        C  0.74460362  0.04342119  0.53915701    -0.55000
C752        C  0.76964640  0.05002699  0.50310219     0.09000
C753        C  0.65499775  0.99628456  0.50598476    -0.54500
C754        C  0.68129186  0.00070845  0.97013245     0.09600
H755        H  0.67534556  0.40585277  0.55006169     0.14100
H756        H  0.75767066  0.00218866  0.94634939    -0.00200
H757        H  0.76046392  0.07612405  0.56141752     0.14400
H758        H  0.61487768  0.49395101  0.50819374     0.14200
Fe759      Fe  0.93076327  0.50843447  0.75664342     1.65800
Fe760      Fe  0.99304165  0.42933770  0.75658355     1.73200
Fe761      Fe  0.57118136  0.06941709  0.75818083     1.54400
O762        O  0.54896949  0.11291229  0.71962821    -0.82200
O763        O  0.54174502  0.44751235  0.80533236    -0.80500
O764        O  0.95859683  0.05967859  0.70905138    -0.84700
O765        O  0.96121832  0.07308422  0.79719459    -0.79500
O766        O  0.59729436  0.04499025  0.70914075    -0.81300
O767        O  0.92723668  0.39652817  0.79681128    -0.84100
C768        C  0.50526040  0.09698659  0.81727315     0.96700
C769        C  0.00567007  0.09930698  0.69981631     1.04100
O770        O  0.99828144  0.50238519  0.75701604    -1.13000
O771        O  0.94339528  0.40478567  0.70823208    -0.75500
O772        O  0.89114927  0.44442914  0.71577364    -0.79000
O773        O  0.54943279  0.09768707  0.80679001    -0.79700
C774        C  0.90464714  0.41276253  0.69703211     0.95600
O775        O  0.89855262  0.45803051  0.80470120    -0.77600
O776        O  0.55838455  0.45355930  0.71611313    -0.82800
C777        C  0.58400443  0.49092104  0.81686926     0.98200
C778        C  0.58968901  0.99827853  0.69750502     1.04100
O779        O  0.60401154  0.03618745  0.79767188    -0.78500
C780        C  0.90069685  0.41589638  0.81608195     1.02400
C781        C  0.66010214  0.99311864  0.58311098    -0.00700
C782        C  0.65060208  0.45307069  0.61252332    -0.12500
C783        C  0.62820037  0.45387532  0.64982693     0.01600
C784        C  0.61618542  0.99635313  0.65941239    -0.00800
C785        C  0.62731132  0.03745374  0.63098111    -0.12500
C786        C  0.64827555  0.03598923  0.59331389     0.01500
H787        H  0.66178651  0.42141053  0.60791035     0.14400
H788        H  0.61843905  0.07060528  0.63783677     0.14400
C789        C  0.65777529  0.07984339  0.56602910     0.36100
C790        C  0.62000203  0.41154663  0.67811023     0.36000
N791        N  0.66517455  0.11504508  0.54435095    -0.44300
N792        N  0.61336704  0.37753330  0.70068247    -0.44300
C793        C  0.60959924  0.98978042  0.85509837    -0.00700
C794        C  0.66419447  0.03075775  0.86234881    -0.12500
C795        C  0.68879659  0.03441700  0.89894918     0.01600
C796        C  0.65734617  0.99913786  0.93061353    -0.00800
C797        C  0.60310404  0.45746531  0.92326091    -0.12500
C798        C  0.57978122  0.45123966  0.88573382     0.01500
H799        H  0.68839709  0.05946206  0.83892218     0.14400
H800        H  0.57959110  0.42803632  0.94651386     0.14400
C801        C  0.52607814  0.40364369  0.87968155     0.36100
C802        C  0.74702868  0.07308974  0.90170655     0.36000
N803        N  0.48380255  0.36430002  0.87499031    -0.44300
N804        N  0.79429231  0.10259445  0.90200601    -0.44300
C805        C  0.50177880  0.15669011  0.93401306    -0.00700
C806        C  0.96469859  0.15542981  0.90567081    -0.12500
C807        C  0.96616632  0.13845974  0.86679894     0.01600
C808        C  0.50487138  0.12148179  0.85611865    -0.00800
C809        C  0.54240143  0.12358868  0.88457361    -0.12500
C810        C  0.54146040  0.14128648  0.92312014     0.01500
H811        H  0.93461315  0.16805714  0.91387647     0.14400
H812        H  0.57237601  0.11056942  0.87695423     0.14400
C813        C  0.58309090  0.14514306  0.95015695     0.36100
C814        C  0.92836646  0.14004679  0.83859501     0.36000
N815        N  0.61651382  0.14812349  0.97167107    -0.44300
N816        N  0.89803067  0.14140874  0.81607879    -0.44300
C817        C  0.01044313  0.16954573  0.58643573    -0.00700
C818        C  0.50709990  0.11738884  0.59006057    -0.12500
C819        C  0.50678270  0.09532350  0.62689972     0.01600
C820        C  0.01077656  0.12543709  0.66150564    -0.00800
C821        C  0.01555961  0.17784281  0.65890550    -0.12500
C822        C  0.01503112  0.20000849  0.62180790     0.01500
H823        H  0.50299998  0.09171146  0.56488014     0.14400
H824        H  0.01810387  0.20066330  0.68582277     0.14400
C825        C  0.01827973  0.25366708  0.62111868     0.36100
C826        C  0.50121253  0.04071237  0.62842434     0.36000
N827        N  0.02103838  0.29670042  0.62053960    -0.44300
N828        N  0.49677993  0.99703062  0.62944039    -0.44300
C829        C  0.84374762  0.34466776  0.93180158    -0.00700
C830        C  0.84929406  0.39656798  0.92343195    -0.12500
C831        C  0.86372157  0.41918438  0.88523735     0.01600
C832        C  0.87436683  0.39006910  0.85459398    -0.00800
C833        C  0.86626290  0.33721563  0.86276953    -0.11700
C834        C  0.85161342  0.31462768  0.90071487     0.01500
H835        H  0.84087650  0.41891725  0.94660047     0.14400
H836        H  0.87351110  0.31397243  0.83964209     0.14400
C837        C  0.84838936  0.26180533  0.90633534     0.36100
C838        C  0.86623525  0.47174764  0.87873759     0.36000
N839        N  0.84737082  0.21972962  0.90813064    -0.44300
N840        N  0.86701091  0.51334539  0.87370901    -0.44300
C841        C  0.83159129  0.34106792  0.58370155    -0.00700
C842        C  0.80199677  0.35469860  0.61201393    -0.12500
C843        C  0.82430307  0.37764964  0.64897340     0.01600
C844        C  0.87690142  0.38617250  0.65928725    -0.00800
C845        C  0.90610379  0.37174296  0.63165149    -0.12500
C846        C  0.88485029  0.35067033  0.59425437     0.01500
H847        H  0.76086402  0.34728576  0.60657034     0.14400
H848        H  0.94696585  0.37857328  0.63873005     0.14400
C849        C  0.91933890  0.33963788  0.56734017     0.36100
C850        C  0.79135445  0.39068281  0.67591667     0.36000
N851        N  0.94739970  0.33133271  0.54590862    -0.44300
N852        N  0.76483274  0.40119679  0.69730651    -0.44300
C853        C  0.80945538  0.69747773  0.49232262     0.79700
N854        N  0.77882439  0.64126452  0.99154279    -0.78600
C855        C  0.80364284  0.60919071  0.99090842     0.82200
N856        N  0.85979742  0.63445399  0.99266915    -0.78500
C857        C  0.89131698  0.69095983  0.49320371     0.82200
N858        N  0.86563528  0.72177992  0.49410797    -0.80300
C859        C  0.69797269  0.80597689  0.97870502     0.79700
N860        N  0.64195441  0.77616767  0.98111840    -0.78600
C861        C  0.61024144  0.80124773  0.98152549     0.82200
N862        N  0.63596172  0.85748938  0.98058960    -0.78500
C863        C  0.69236347  0.88885466  0.97839271     0.82200
N864        N  0.72265355  0.86249463  0.97784081    -0.80300
C865        C  0.80634452  0.81361743  0.04375848     0.86000
C866        C  0.74864034  0.80406850  0.03435169    -0.54300
C867        C  0.72973358  0.78223633  0.99776074     0.08900
C868        C  0.76861286  0.76515565  0.47550563     0.19900
C869        C  0.79991725  0.75596310  0.04056065    -0.55000
C870        C  0.78348436  0.73115889  0.00454142     0.09000
C871        C  0.84197588  0.84612369  0.00701411    -0.54500
C872        C  0.82217460  0.81990029  0.47135372     0.09600
H873        H  0.72854978  0.82312339  0.05070075     0.14100
H874        H  0.75095736  0.74336646  0.44713674    -0.00200
H875        H  0.81587444  0.73983361  0.06307616     0.14400
H876        H  0.87851304  0.88674368  0.00907078     0.14200
C877        C  0.00682531  0.69161576  0.04577061     0.86000
C878        C  0.55541288  0.74898291  0.03717410    -0.54300
C879        C  0.55459911  0.77027290  0.00101759     0.08900
C880        C  0.50010916  0.73314421  0.47834378     0.19900
C881        C  0.95566819  0.69787242  0.04250624    -0.55000
C882        C  0.94950218  0.71637709  0.00672072     0.09000
C883        C  0.00454091  0.65682567  0.00845491    -0.54500
C884        C  0.50138529  0.67940177  0.47346057     0.09600
H885        H  0.59252880  0.76631391  0.05507552     0.14100
H886        H  0.49744599  0.75236021  0.45029276    -0.00200
H887        H  0.92211109  0.67942474  0.06423708     0.14400
H888        H  0.00567438  0.61849578  0.00816183     0.14200
C889        C  0.68698957  0.49348852  0.04277100     0.86000
C890        C  0.69583557  0.94435033  0.03368357    -0.54300
C891        C  0.71742630  0.94504437  0.99703343     0.08900
C892        C  0.73556661  0.50032482  0.47443539     0.19900
C893        C  0.74457366  0.54341299  0.03916021    -0.55000
C894        C  0.76962501  0.55002220  0.00310855     0.09000
C895        C  0.65497385  0.49626140  0.00598019    -0.54500
C896        C  0.68130462  0.50072619  0.47013356     0.09600
H897        H  0.67533034  0.90584308  0.05006488     0.14100
H898        H  0.75767289  0.50219493  0.44634070    -0.00200
H899        H  0.76042447  0.57611652  0.06142033     0.14400
H900        H  0.61485175  0.99391915  0.00818387     0.14200
Fe901      Fe  0.93075999  0.00844992  0.25663642     1.65800
Fe902      Fe  0.99304413  0.92936054  0.25658201     1.73200
Fe903      Fe  0.57117814  0.56943741  0.25817038     1.54400
O904        O  0.54896083  0.61292732  0.21961489    -0.82200
O905        O  0.54175028  0.94754707  0.30533337    -0.80500
O906        O  0.95858848  0.55968806  0.20904080    -0.84700
O907        O  0.96121192  0.57309976  0.29718663    -0.79500
O908        O  0.59728845  0.54500757  0.20913070    -0.81300
O909        O  0.92723741  0.89655120  0.29680558    -0.84100
C910        C  0.50525156  0.59699227  0.31726860     0.96700
C911        C  0.00566005  0.59931692  0.19980293     1.04100
O912        O  0.99828069  0.00240485  0.25700862    -1.13000
O913        O  0.94339455  0.90480192  0.20823020    -0.75500
O914        O  0.89113844  0.94443389  0.21577526    -0.79000
O915        O  0.54942657  0.59770203  0.30678015    -0.79700
C916        C  0.90463703  0.91276761  0.19703418     0.95600
O917        O  0.89855472  0.95805385  0.30469838    -0.77600
O918        O  0.55838658  0.95357840  0.21611434    -0.82800
C919        C  0.58401288  0.99095714  0.31686666     0.98200
C920        C  0.58968256  0.49829355  0.19750010     1.04100
O921        O  0.60401760  0.53621650  0.29766401    -0.78500
C922        C  0.90069531  0.91591651  0.31607604     1.02400
C923        C  0.66006662  0.49310178  0.08310484    -0.00700
C924        C  0.65058179  0.95306613  0.11252258    -0.12500
C925        C  0.62819149  0.95388194  0.14982774     0.01600
C926        C  0.61616710  0.49635697  0.15940634    -0.00800
C927        C  0.62727397  0.53744257  0.13096752    -0.12500
C928        C  0.64823086  0.53596859  0.09330028     0.01500
H929        H  0.66177309  0.92140754  0.10791286     0.14400
H930        H  0.61839498  0.57059136  0.13781842     0.14400
C931        C  0.65771669  0.57981079  0.06600829     0.36100
C932        C  0.62002066  0.91157479  0.17812215     0.36000
N933        N  0.66510477  0.61500260  0.04432405    -0.44300
N934        N  0.61341049  0.87758041  0.20070406    -0.44300
C935        C  0.60960655  0.48981963  0.35509957    -0.00700
C936        C  0.66420071  0.53079969  0.36235304    -0.12500
C937        C  0.68880457  0.53445377  0.39895326     0.01600
C938        C  0.65735621  0.49916854  0.43061623    -0.00800
C939        C  0.60311590  0.95750213  0.42326170    -0.12500
C940        C  0.57979333  0.95128001  0.38573427     0.01500
H941        H  0.68840236  0.55950798  0.33892816     0.14400
H942        H  0.57960319  0.92806965  0.44651288     0.14400
C943        C  0.52609508  0.90367942  0.37967887     0.36100
C944        C  0.74703623  0.57312868  0.40171185     0.36000
N945        N  0.48382450  0.86433154  0.37498297    -0.44300
N946        N  0.79429889  0.60263908  0.40201106    -0.44300
C947        C  0.50179101  0.65666231  0.43402620    -0.00700
C948        C  0.96469792  0.65539927  0.40569401    -0.12500
C949        C  0.96615083  0.63843118  0.36681930     0.01600
C950        C  0.50485876  0.62146334  0.35612393    -0.00800
C951        C  0.54239221  0.62355851  0.38457195    -0.12500
C952        C  0.54146306  0.64125054  0.42312236     0.01500
H953        H  0.93461443  0.66802506  0.41390954     0.14400
H954        H  0.57236319  0.61053805  0.37694313     0.14400
C955        C  0.58309774  0.64509535  0.45015027     0.36100
C956        C  0.92833050  0.64000804  0.33862949     0.36000
N957        N  0.61652498  0.64806467  0.47165542    -0.44300
N958        N  0.89797461  0.64135920  0.31612675    -0.44300
C959        C  0.01040427  0.66955263  0.08642506    -0.00700
C960        C  0.50704480  0.61738814  0.09004727    -0.12500
C961        C  0.50674166  0.59532536  0.12688476     0.01600
C962        C  0.01075971  0.62544592  0.16149194    -0.00800
C963        C  0.01555130  0.67785577  0.15889390    -0.12500
C964        C  0.01501059  0.70001984  0.12179807     0.01500
H965        H  0.50292033  0.59170326  0.06486745     0.14400
H966        H  0.01811082  0.70068059  0.18581183     0.14400
C967        C  0.01826590  0.75368159  0.12111177     0.36100
C968        C  0.50116338  0.54071061  0.12840540     0.36000
N969        N  0.02102984  0.79671735  0.12053451    -0.44300
N970        N  0.49672552  0.49702641  0.12941632    -0.44300
C971        C  0.84376013  0.84468310  0.43179275    -0.00700
C972        C  0.84926840  0.89656655  0.42341894    -0.12500
C973        C  0.86369005  0.91918283  0.38522434     0.01600
C974        C  0.87436019  0.89008110  0.35458455    -0.00800
C975        C  0.86628442  0.83723817  0.36276301    -0.11700
C976        C  0.85164966  0.81465420  0.40070997     0.01500
H977        H  0.84083197  0.91890476  0.44658540     0.14400
H978        H  0.87355161  0.81400452  0.33963837     0.14400
C979        C  0.84847783  0.76185591  0.40633899     0.36100
C980        C  0.86617992  0.97173485  0.37872248     0.36000
N981        N  0.84750708  0.71980322  0.40814196    -0.44300
N982        N  0.86693964  0.01332472  0.37369263    -0.44300
C983        C  0.83155643  0.84104163  0.08371439    -0.00700
C984        C  0.80196793  0.85468156  0.11202556    -0.12500
C985        C  0.82428048  0.87764138  0.14898228     0.01600
C986        C  0.87688002  0.88616400  0.15929470    -0.00800
C987        C  0.90607280  0.87171875  0.13166185    -0.12500
C988        C  0.88481194  0.85063470  0.09426847     0.01500
H989        H  0.76083531  0.84727041  0.10658204     0.14400
H990        H  0.94693404  0.87854570  0.13873927     0.14400
C991        C  0.91929072  0.83958099  0.06735979     0.36100
C992        C  0.79133712  0.89068543  0.17592277     0.36000
N993        N  0.94734553  0.83125836  0.04593455    -0.44300
N994        N  0.76481657  0.90120654  0.19730846    -0.44300
C995        C  0.80941326  0.69746611  0.99232420     0.79700
N996        N  0.77885946  0.64127621  0.49153594    -0.78600
C997        C  0.80367046  0.60919498  0.49090463     0.82200
N998        N  0.85982353  0.63444991  0.49267365    -0.78500
C999        C  0.89128419  0.69096537  0.99319321     0.82200
N1000       N  0.86559425  0.72177738  0.99409985    -0.80300
C1001       C  0.69799855  0.80598091  0.47870192     0.79700
N1002       N  0.64198117  0.77616685  0.48111783    -0.78600
C1003       C  0.61026378  0.80124169  0.48153030     0.82200
N1004       N  0.63597716  0.85748303  0.48059350    -0.78500
C1005       C  0.69237778  0.88885478  0.47839209     0.82200
N1006       N  0.72267376  0.86249965  0.47783941    -0.80300
C1007       C  0.80637883  0.81363708  0.54374895     0.86000
C1008       C  0.74866872  0.80407362  0.53434553    -0.54300
C1009       C  0.72976252  0.78224045  0.49775510     0.08900
C1010       C  0.76857956  0.76514698  0.97551179     0.19900
C1011       C  0.79996581  0.75598840  0.54055318    -0.55000
C1012       C  0.78353084  0.73117751  0.50453636     0.09000
C1013       C  0.84200187  0.84614450  0.50700224    -0.54500
C1014       C  0.82214896  0.81988619  0.97136330     0.09600
H1015       H  0.72857291  0.82312235  0.55069525     0.14100
H1016       H  0.75092273  0.74336175  0.94714203    -0.00200
H1017       H  0.81592996  0.73986666  0.56306920     0.14400
H1018       H  0.87853178  0.88677035  0.50905537     0.14200
C1019       C  0.00686264  0.69160534  0.54578125     0.86000
C1020       C  0.55544556  0.74897502  0.53718285    -0.54300
C1021       C  0.55462597  0.77026136  0.50102596     0.08900
C1022       C  0.50008038  0.73316134  0.97833375     0.19900
C1023       C  0.95569995  0.69785342  0.54251611    -0.55000
C1024       C  0.94953324  0.71636006  0.50673164     0.09000
C1025       C  0.00458046  0.65681439  0.50846672    -0.54500
C1026       C  0.50135169  0.67941761  0.97344905     0.09600
H1027       H  0.59256263  0.76631135  0.55508328     0.14100
H1028       H  0.49742089  0.75238068  0.95028327    -0.00200
H1029       H  0.92214298  0.67940380  0.56424689     0.14400
H1030       H  0.00571030  0.61848198  0.50817519     0.14200
C1031       C  0.68701440  0.49350259  0.54277204     0.86000
C1032       C  0.69584868  0.94435807  0.53367964    -0.54300
C1033       C  0.71743470  0.94504904  0.49702809     0.08900
C1034       C  0.73555687  0.50031811  0.97444098     0.19900
C1035       C  0.74460177  0.54342066  0.53915741    -0.55000
C1036       C  0.76964502  0.55002680  0.50310276     0.09000
C1037       C  0.65499615  0.49628363  0.50598483    -0.54500
C1038       C  0.68129060  0.50070781  0.97013267     0.09600
H1039       H  0.67534618  0.90585324  0.55006172     0.14100
H1040       H  0.75766996  0.50218899  0.94634977    -0.00200
H1041       H  0.76046180  0.57612331  0.56141806     0.14400
H1042       H  0.61487945  0.99395233  0.50819381     0.14200
Fe1043     Fe  0.93076431  0.00843506  0.75664370     1.65800
Fe1044     Fe  0.99304238  0.92933841  0.75658403     1.73200
Fe1045     Fe  0.57118046  0.56941667  0.75818176     1.54400
O1046       O  0.54897004  0.61291277  0.71962917    -0.82200
O1047       O  0.54174588  0.94751387  0.80533268    -0.80500
O1048       O  0.95859708  0.55968127  0.70905282    -0.84700
O1049       O  0.96121536  0.57308063  0.79719670    -0.79500
O1050       O  0.59729440  0.54499052  0.70914159    -0.81300
O1051       O  0.92723730  0.89653001  0.79681213    -0.84100
C1052       C  0.50525792  0.59698426  0.81727467     0.96700
C1053       C  0.00567066  0.59930907  0.69981778     1.04100
O1054       O  0.99828239  0.00238574  0.75701594    -1.13000
O1055       O  0.94339585  0.90478612  0.70823276    -0.75500
O1056       O  0.89114757  0.94442672  0.71577619    -0.79000
O1057       O  0.54943089  0.59768627  0.80679092    -0.79700
C1058       C  0.90464615  0.91276118  0.69703387     0.95600
O1059       O  0.89855603  0.95803439  0.80470338    -0.77600
O1060       O  0.55838543  0.95355922  0.71611332    -0.82800
C1061       C  0.58400577  0.99092250  0.81686901     0.98200
C1062       C  0.58968853  0.49827880  0.69750530     1.04100
O1063       O  0.60400977  0.53618649  0.79767286    -0.78500
C1064       C  0.90069929  0.91589957  0.81608375     1.02400
C1065       C  0.66009994  0.49311777  0.58311087    -0.00700
C1066       C  0.65060602  0.95307260  0.61252389    -0.12500
C1067       C  0.62820410  0.95387696  0.64982753     0.01600
C1068       C  0.61618455  0.49635324  0.65941255    -0.00800
C1069       C  0.62731159  0.53745449  0.63098156    -0.12500
C1070       C  0.64827446  0.53598906  0.59331398     0.01500
H1071       H  0.66179271  0.92141376  0.60791129     0.14400
H1072       H  0.61844077  0.57060688  0.63783758     0.14400
C1073       C  0.65777346  0.57984266  0.56602887     0.36100
C1074       C  0.62000959  0.91155085  0.67811197     0.36000
N1075       N  0.66517191  0.61504366  0.54435031    -0.44300
N1076       N  0.61337811  0.87753989  0.70068529    -0.44300
C1077       C  0.60959791  0.48977867  0.85509852    -0.00700
C1078       C  0.66419300  0.53075632  0.86234902    -0.12500
C1079       C  0.68879500  0.53441608  0.89894951     0.01600
C1080       C  0.65734475  0.49913673  0.93061376    -0.00800
C1081       C  0.60310531  0.95746687  0.92326074    -0.12500
C1082       C  0.57978248  0.95124145  0.88573371     0.01500
H1083       H  0.68839552  0.55946078  0.83892244     0.14400
H1084       H  0.57959228  0.92803791  0.94651368     0.14400
C1085       C  0.52607936  0.90364553  0.87968153     0.36100
C1086       C  0.74702669  0.57309014  0.90170732     0.36000
N1087       N  0.48380377  0.86430183  0.87499040    -0.44300
N1088       N  0.79429006  0.60259618  0.90200722    -0.44300
C1089       C  0.50177775  0.65668937  0.93401443    -0.00700
C1090       C  0.96469703  0.65542850  0.90567238    -0.12500
C1091       C  0.96616396  0.63845747  0.86680065     0.01600
C1092       C  0.50486889  0.62147933  0.85612026    -0.00800
C1093       C  0.54239921  0.62358647  0.88457508    -0.12500
C1094       C  0.54145885  0.64128507  0.92312148     0.01500
H1095       H  0.93461185  0.66805618  0.91387807     0.14400
H1096       H  0.57237354  0.61056691  0.87695563     0.14400
C1097       C  0.58308956  0.64514182  0.95015813     0.36100
C1098       C  0.92836354  0.64004394  0.83859695     0.36000
N1099       N  0.61651258  0.64812236  0.97167219    -0.44300
N1100       N  0.89802719  0.64140542  0.81608103    -0.44300
C1101       C  0.01044475  0.66954781  0.58643704    -0.00700
C1102       C  0.50710329  0.61739176  0.59006206    -0.12500
C1103       C  0.50678559  0.59532643  0.62690129     0.01600
C1104       C  0.01077769  0.62543947  0.66150717    -0.00800
C1105       C  0.01556002  0.67784489  0.65890687    -0.12500
C1106       C  0.01503202  0.70001053  0.62180912     0.01500
H1107       H  0.50300523  0.59171492  0.56488167     0.14400
H1108       H  0.01810348  0.70066518  0.68582406     0.14400
C1109       C  0.01828096  0.75366926  0.62111961     0.36100
C1110       C  0.50121601  0.54071555  0.62842602     0.36000
N1111       N  0.02104019  0.79670285  0.62054032    -0.44300
N1112       N  0.49678362  0.49703389  0.62944206    -0.44300
C1113       C  0.84374885  0.84466973  0.93180332    -0.00700
C1114       C  0.84929605  0.89657038  0.92343405    -0.12500
C1115       C  0.86372445  0.91918755  0.88523964     0.01600
C1116       C  0.87436966  0.89007247  0.85459604    -0.00800
C1117       C  0.86626506  0.83721866  0.86277129    -0.11700
C1118       C  0.85161497  0.81463013  0.90071643     0.01500
H1119       H  0.84087835  0.91891941  0.94660269     0.14400
H1120       H  0.87351310  0.81397551  0.83964372     0.14400
C1121       C  0.84839053  0.76180755  0.90633657     0.36100
C1122       C  0.86623880  0.97175121  0.87874035     0.36000
N1123       N  0.84737168  0.71973168  0.90813166    -0.44300
N1124       N  0.86701492  0.01334930  0.87371240    -0.44300
C1125       C  0.83158975  0.84106647  0.58370335    -0.00700
C1126       C  0.80199487  0.85469636  0.61201597    -0.12500
C1127       C  0.82430111  0.87764718  0.64897557     0.01600
C1128       C  0.87689970  0.88617044  0.65928929    -0.00800
C1129       C  0.90610195  0.87174087  0.63165345    -0.12500
C1130       C  0.88484862  0.85066862  0.59425627     0.01500
H1131       H  0.76086195  0.84728312  0.60657233     0.14400
H1132       H  0.94696403  0.87857111  0.63873191     0.14400
C1133       C  0.91933740  0.83963636  0.56734210     0.36100
C1134       C  0.79135235  0.89067992  0.67591900     0.36000
N1135       N  0.94739843  0.83133136  0.54591068    -0.44300
N1136       N  0.76483043  0.90119351  0.69730892    -0.44300
loop_ 
_geom_bond_atom_site_label_1 
_geom_bond_atom_site_label_2 
_geom_bond_distance 
_geom_bond_site_symmetry_2 
_ccdc_geom_bond_type 
C1            N6   1.364       .  A
C1          N144   1.359       .  A
C1          C160   1.486       .  S
N2            C3   1.367       .  A
N2          C143   1.359       .  A
C3            N4   1.362       .  A
C3           C42   1.492   1_556  S
N4          C147   1.368       .  A
C5            N6   1.356       .  A
C5          N146   1.368       .  A
C5          C172   1.489       .  S
C7            N8   1.358       .  A
C7           N12   1.367       .  A
C7           C15   1.490       .  S
N8            C9   1.365       .  A
C9           N10   1.359       .  A
C9           C27   1.494   1_556  S
N10          C11   1.369       .  A
C11          N12   1.359       .  A
C11          C39   1.495       .  S
C13          C14   1.529       .  S
C13          C19   1.559       .  S
C13          C17   1.521       .  S
C13         C131   1.540       .  S
C14          H21   1.082       .  S
C14          C15   1.363   1_554  D
C15         C158   1.557       .  S
C16          C20   1.520       .  S
C16         C157   1.557       .  S
C16         C160   1.559       .  S
C16          H22   1.110       .  S
C17          H23   1.088       .  S
C17          C18   1.360       .  D
C18         C143   1.486   1_554  S
C18         C158   1.559   1_554  S
C19          H24   1.086       .  S
C19         C162   1.374   1_554  D
C20         C119   1.482       .  S
C20         C161   1.374       .  D
C25          C31   1.562       .  S
C25          C29   1.520       .  S
C25         C594   1.523       .  S
C25         C107   1.530       .  S
C26         C593   1.523       .  S
C26          H33   1.088       .  S
C26          C27   1.364       .  D
C27         C170   1.557   1_554  S
C28          C32   1.515       .  S
C28         C169   1.557       .  S
C28         C740   1.559   1_455  S
C28          H34   1.111   1_455  S
C29          H35   1.088       .  S
C29          C30   1.361       .  D
C30         C147   1.489   1_554  S
C30         C738   1.559   1_554  S
C31          H36   1.078       .  S
C31         C742   1.365   1_554  D
C32          C95   1.469       .  S
C32         C741   1.365       .  D
C37          C43   1.562       .  S
C37          C41   1.519   1_565  S
C37         C322   1.526       .  S
C37          C71   1.540       .  S
C38         C321   1.526       .  S
C38          H45   1.082       .  S
C38          C39   1.362   1_554  D
C39         C466   1.559       .  S
C40          C44   1.522       .  S
C40         C465   1.559   1_545  S
C40         C184   1.565       .  S
C40          H46   1.109       .  S
C41          H47   1.088       .  S
C41          C42   1.359       .  D
C42         C182   1.565   1_554  S
C43         H332   1.086       .  S
C43         C186   1.378   1_564  D
C44          C86   1.489   1_545  S
C44         C185   1.378   1_545  D
H48         C327   1.086       .  S
Fe49         O65   2.035       .  S
Fe49         O62   2.083       .  S
Fe49        O339   2.073       .  S
Fe49        O338   2.028       .  S
Fe49         O60   1.964       .  S
Fe50         O57   2.078       .  S
Fe50         O61   2.037       .  S
Fe50        O621   2.042       .  S
Fe50        O634   2.085       .  S
Fe50         O60   1.957       .  S
Fe51         O69   2.083       .  S
Fe51         O56   2.036       .  S
Fe51         O63   2.020       .  S
Fe51         O52   2.076       .  S
Fe51        O912   1.963   1_455  S
O52         C627   1.268       .  A
O53        Fe618   2.042   1_455  S
O53          C67   1.262       .  A
O54        Fe333   2.028       .  S
O54          C59   1.262       .  A
O55        Fe333   2.073       .  S
O55         C626   1.270       .  A
O56          C68   1.265   1_545  A
O57          C70   1.274       .  A
C58          O63   1.263       .  A
C58         O623   1.270   1_455  A
C58          C98   1.472       .  S
C59         O620   1.268       .  A
C59         C110   1.457       .  S
O60        Fe903   1.963       .  S
O61          C64   1.264       .  A
O62          C64   1.272       .  A
C64         C134   1.487       .  S
O65          C70   1.262       .  A
O66        Fe618   2.085   1_455  S
O66         C352   1.274       .  A
C67         O353   1.272       .  A
C67         C367   1.490       .  S
C68         O350   1.274       .  A
C68          C74   1.484       .  S
O69         C351   1.272   1_545  A
C70         C122   1.485       .  S
C71          C76   1.419   1_565  A
C71         C356   1.417       .  A
C72          C73   1.400       .  A
C72         C355   1.417       .  A
C72          H77   1.075       .  S
C73         C358   1.407       .  A
C73          C80   1.445       .  S
C74          C75   1.406   1_565  A
C74         C357   1.407       .  A
C75          C76   1.398       .  A
C75          H78   1.085       .  S
C76          C79   1.446       .  S
C79          N81   1.157       .  T
C80          N82   1.157       .  T
C83         C351   1.490       .  S
C83          C84   1.400   1_565  A
C83         C372   1.420       .  A
C84          C85   1.398       .  A
C84          H89   1.085       .  S
C85          C86   1.417   1_545  A
C85          C92   1.439       .  S
C86         C371   1.400       .  A
C87          C88   1.401       .  A
C87         C370   1.400       .  A
C87          H90   1.085       .  S
C88         C367   1.420       .  A
C88          C91   1.441       .  S
C91          N93   1.156   1_455  T
C92          N94   1.156       .  T
C95         C100   1.407       .  A
C95         C664   1.403   1_455  A
C96          C97   1.395       .  A
C96         C663   1.403       .  A
C96         H101   1.085       .  S
C97         C666   1.411       .  A
C97         C104   1.444       .  S
C98          C99   1.407       .  A
C98         C665   1.411   1_455  A
C99         C100   1.390       .  A
C99         H102   1.085       .  S
C100        C103   1.445       .  S
C103        N105   1.157       .  T
C104        N106   1.157       .  T
C107        C112   1.426       .  A
C107        C676   1.409       .  A
C108        C109   1.387       .  A
C108        C675   1.409       .  A
C108        H113   1.074       .  S
C109        C678   1.402       .  A
C109        C116   1.445       .  S
C110        C111   1.396       .  A
C110        C677   1.402       .  A
C111        C112   1.402       .  A
C111        H114   1.085       .  S
C112        C115   1.446       .  S
C115        N117   1.158       .  T
C116        N118   1.156   1_445  T
C119        C120   1.400       .  A
C119        C124   1.413       .  A
C120        C121   1.401       .  A
C120        H125   1.085       .  S
C121        C122   1.420       .  A
C121        C128   1.443       .  S
C122        C123   1.398       .  A
C123        C124   1.393       .  A
C123        H126   1.085       .  S
C124        C127   1.437       .  S
C127        N129   1.155       .  T
C128        N130   1.157       .  T
C131        C132   1.416       .  A
C131        C136   1.419       .  A
C132        C133   1.401       .  A
C132        H137   1.075       .  S
C133        C134   1.409       .  A
C133        C140   1.445       .  S
C134        C135   1.406       .  A
C135        C136   1.396       .  A
C135        H138   1.085       .  S
C136        C139   1.446       .  S
C139        N141   1.157       .  T
C140        N142   1.157       .  T
C143        N148   1.364       .  A
N144        C145   1.367       .  A
C145        N146   1.362       .  A
C145        C184   1.492       .  S
C147        N148   1.356       .  A
C149        N150   1.358       .  A
C149        N154   1.367       .  A
C149        C157   1.490       .  S
N150        C151   1.365       .  A
C151        N152   1.359       .  A
C151        C169   1.494       .  S
N152        C153   1.369       .  A
C153        N154   1.359       .  A
C153        C181   1.495       .  S
C155        C156   1.529       .  S
C155        C161   1.559       .  S
C155        C159   1.521       .  S
C155        C273   1.540       .  S
C156        H163   1.082       .  S
C156        C157   1.363       .  D
C158        C162   1.520       .  S
C158        H164   1.110       .  S
C159        H165   1.088       .  S
C159        C160   1.360       .  D
C161        H166   1.086       .  S
C162        C261   1.482       .  S
C167        C736   1.523       .  S
C167        C173   1.562       .  S
C167        C171   1.520       .  S
C167        C249   1.530       .  S
C168        C735   1.523       .  S
C168        H175   1.088       .  S
C168        C169   1.364       .  D
C170        C174   1.515       .  S
C170        C598   1.559   1_456  S
C170        H176   1.111   1_455  S
C171        H177   1.088       .  S
C171        C172   1.361       .  D
C172        C596   1.559       .  S
C173        H178   1.078       .  S
C173        C600   1.365       .  D
C174        C237   1.469       .  S
C174        C599   1.365   1_556  D
C179        C464   1.526       .  S
C179        C185   1.562       .  S
C179        C183   1.519   1_565  S
C179        C213   1.540       .  S
C180        C463   1.526       .  S
C180        H187   1.082       .  S
C180        C181   1.362       .  D
C181        C324   1.559       .  S
C182        C323   1.559   1_545  S
C182        C186   1.522       .  S
C182        H188   1.109       .  S
C183        H189   1.088       .  S
C183        C184   1.359       .  D
C185        H474   1.086       .  S
C186        C228   1.489   1_545  S
H190        C469   1.086       .  S
Fe191       O207   2.035       .  S
Fe191       O481   2.073       .  S
Fe191       O204   2.083       .  S
Fe191       O480   2.028       .  S
Fe191       O202   1.964       .  S
Fe192       O763   2.042       .  S
Fe192       O199   2.078       .  S
Fe192       O203   2.037       .  S
Fe192       O776   2.085       .  S
Fe192       O202   1.957       .  S
Fe193       O211   2.083       .  S
Fe193       O198   2.036       .  S
Fe193       O205   2.020       .  S
Fe193       O194   2.076       .  S
Fe193      O1054   1.963   1_455  S
O194        C769   1.268       .  A
O195       Fe760   2.042   1_455  S
O195        C209   1.262       .  A
O196       Fe475   2.028       .  S
O196        C201   1.262       .  A
O197       Fe475   2.073       .  S
O197        C768   1.270       .  A
O198        C210   1.265   1_545  A
O199        C212   1.274       .  A
C200        O765   1.270   1_455  A
C200        O205   1.263       .  A
C200        C240   1.472       .  S
C201        O762   1.268       .  A
C201        C252   1.457       .  S
O202      Fe1045   1.963       .  S
O203        C206   1.264       .  A
O204        C206   1.272       .  A
C206        C276   1.487       .  S
O207        C212   1.262       .  A
O208       Fe760   2.085   1_455  S
O208        C494   1.274       .  A
C209        O495   1.272       .  A
C209        C509   1.490       .  S
C210        O492   1.274       .  A
C210        C216   1.484       .  S
O211        C493   1.272   1_545  A
C212        C264   1.485       .  S
C213        C498   1.417       .  A
C213        C218   1.419   1_565  A
C214        C497   1.417       .  A
C214        C215   1.400       .  A
C214        H219   1.075       .  S
C215        C500   1.407       .  A
C215        C222   1.445       .  S
C216        C499   1.407       .  A
C216        C217   1.406   1_565  A
C217        C218   1.398       .  A
C217        H220   1.085       .  S
C218        C221   1.446       .  S
C221        N223   1.157       .  T
C222        N224   1.157       .  T
C225        C493   1.490       .  S
C225        C226   1.400   1_565  A
C225        C514   1.420       .  A
C226        C227   1.398       .  A
C226        H231   1.085       .  S
C227        C228   1.417   1_545  A
C227        C234   1.439       .  S
C228        C513   1.400       .  A
C229        C512   1.400       .  A
C229        C230   1.401       .  A
C229        H232   1.085       .  S
C230        C509   1.420       .  A
C230        C233   1.441       .  S
C233        N235   1.156   1_455  T
C234        N236   1.156       .  T
C237        C806   1.403   1_455  A
C237        C242   1.407       .  A
C238        C805   1.403       .  A
C238        C239   1.395       .  A
C238        H243   1.085       .  S
C239        C808   1.411       .  A
C239        C246   1.444       .  S
C240        C807   1.411   1_455  A
C240        C241   1.407       .  A
C241        C242   1.390       .  A
C241        H244   1.085       .  S
C242        C245   1.445       .  S
C245        N247   1.157       .  T
C246        N248   1.157       .  T
C249        C818   1.409       .  A
C249        C254   1.426       .  A
C250        C817   1.409       .  A
C250        C251   1.387       .  A
C250        H255   1.074       .  S
C251        C820   1.402       .  A
C251        C258   1.445       .  S
C252        C819   1.402       .  A
C252        C253   1.396       .  A
C253        C254   1.402       .  A
C253        H256   1.085       .  S
C254        C257   1.446       .  S
C257        N259   1.158       .  T
C258        N260   1.156   1_445  T
C261        C262   1.400       .  A
C261        C266   1.413       .  A
C262        C263   1.401       .  A
C262        H267   1.085       .  S
C263        C264   1.420       .  A
C263        C270   1.443       .  S
C264        C265   1.398       .  A
C265        C266   1.393       .  A
C265        H268   1.085       .  S
C266        C269   1.436       .  S
C269        N271   1.155       .  T
C270        N272   1.157       .  T
C273        C274   1.416       .  A
C273        C278   1.419       .  A
C274        C275   1.401       .  A
C274        H279   1.075       .  S
C275        C276   1.409       .  A
C275        C282   1.445       .  S
C276        C277   1.406       .  A
C277        C278   1.396       .  A
C277        H280   1.085       .  S
C278        C281   1.446       .  S
C281        N283   1.157       .  T
C282        N284   1.157       .  T
C285        N428   1.359       .  A
C285        N290   1.364       .  A
C285        C444   1.486       .  S
N286        C427   1.359       .  A
N286        C287   1.367       .  A
C287        N288   1.362       .  A
C287        C326   1.492   1_556  S
N288        C431   1.368       .  A
C289        N430   1.368       .  A
C289        N290   1.356       .  A
C289        C456   1.489       .  S
C291        N292   1.358       .  A
C291        N296   1.367       .  A
C291        C299   1.490       .  S
N292        C293   1.365       .  A
C293        N294   1.359       .  A
C293        C311   1.494   1_556  S
N294        C295   1.369       .  A
C295        N296   1.359       .  A
C295        C323   1.495       .  S
C297        C298   1.529       .  S
C297        C303   1.559       .  S
C297        C301   1.521       .  S
C297        C415   1.540       .  S
C298        H305   1.082       .  S
C298        C299   1.363   1_554  D
C299        C442   1.557       .  S
C300        C441   1.557       .  S
C300        C304   1.520       .  S
C300        C444   1.559       .  S
C300        H306   1.110       .  S
C301        H307   1.088       .  S
C301        C302   1.360       .  D
C302        C427   1.486   1_554  S
C302        C442   1.559   1_554  S
C303        H308   1.086       .  S
C303        C446   1.374   1_554  D
C304        C403   1.482       .  S
C304        C445   1.374       .  D
C309        C878   1.523       .  S
C309        C315   1.562       .  S
C309        C313   1.520       .  S
C309        C391   1.530       .  S
C310        C877   1.523       .  S
C310        H317   1.088       .  S
C310        C311   1.364       .  D
C311        C454   1.557   1_554  S
C312        C453   1.557       .  S
C312        C316   1.515       .  S
C312       C1024   1.559   1_455  S
C312        H318   1.111   1_455  S
C313        H319   1.088       .  S
C313        C314   1.361       .  D
C314        C431   1.489   1_554  S
C314       C1022   1.559   1_554  S
C315        H320   1.078       .  S
C315       C1026   1.365   1_554  D
C316        C379   1.469       .  S
C316       C1025   1.365       .  D
C321        C327   1.562       .  S
C321        C325   1.519       .  S
C321        C355   1.540       .  S
C322        H329   1.082       .  S
C322        C323   1.362   1_554  D
C324        C328   1.522       .  S
C324        C468   1.565       .  S
C324        H330   1.109       .  S
C325        H331   1.088       .  S
C325        C326   1.359       .  D
C326        C466   1.565   1_554  S
C327        C470   1.378   1_554  D
C328        C370   1.489       .  S
C328        C469   1.378       .  D
Fe333       O349   2.035   1_545  S
Fe333       O346   2.083   1_545  S
Fe333       O344   1.964       .  S
Fe334       O905   2.042       .  S
Fe334       O341   2.078       .  S
Fe334       O345   2.037       .  S
Fe334       O918   2.085       .  S
Fe334       O344   1.957   1_565  S
Fe335       O353   2.083       .  S
Fe335       O340   2.036       .  S
Fe335       O347   2.020       .  S
Fe335       O336   2.076       .  S
Fe335       O628   1.963   1_455  S
O336        C911   1.268       .  A
O337       Fe902   2.042   1_455  S
O337        C351   1.262       .  A
O338        C343   1.262       .  A
O339        C910   1.270       .  A
O340        C352   1.265       .  A
O341        C354   1.274       .  A
C342        O907   1.270   1_455  A
C342        O347   1.263       .  A
C342        C382   1.472       .  S
C343        O904   1.268       .  A
C343        C394   1.457       .  S
O344       Fe619   1.963       .  S
O345        C348   1.264       .  A
O346        C348   1.272       .  A
C348        C418   1.487       .  S
O349        C354   1.262       .  A
O350       Fe902   2.085   1_455  S
C352        C358   1.484       .  S
C354        C406   1.485       .  S
C355        C360   1.419       .  A
C356        C357   1.400       .  A
C356        H361   1.075       .  S
C357        C364   1.445       .  S
C358        C359   1.406       .  A
C359        C360   1.398       .  A
C359        H362   1.085       .  S
C360        C363   1.446       .  S
C363        N365   1.157       .  T
C364        N366   1.157       .  T
C367        C368   1.400       .  A
C368        C369   1.398       .  A
C368        H373   1.085       .  S
C369        C370   1.417       .  A
C369        C376   1.439       .  S
C371        C372   1.401       .  A
C371        H374   1.085       .  S
C372        C375   1.441       .  S
C375        N377   1.156   1_455  T
C376        N378   1.156       .  T
C379        C948   1.403   1_455  A
C379        C384   1.407       .  A
C380        C947   1.403       .  A
C380        C381   1.395       .  A
C380        H385   1.085       .  S
C381        C950   1.411       .  A
C381        C388   1.444       .  S
C382        C949   1.411   1_455  A
C382        C383   1.407       .  A
C383        C384   1.390       .  A
C383        H386   1.085       .  S
C384        C387   1.445       .  S
C387        N389   1.157       .  T
C388        N390   1.157       .  T
C391        C960   1.409       .  A
C391        C396   1.426       .  A
C392        C959   1.409       .  A
C392        C393   1.387       .  A
C392        H397   1.074       .  S
C393        C962   1.402       .  A
C393        C400   1.445       .  S
C394        C961   1.402       .  A
C394        C395   1.396       .  A
C395        C396   1.402       .  A
C395        H398   1.085       .  S
C396        C399   1.446       .  S
C399        N401   1.158       .  T
C400        N402   1.156   1_455  T
C403        C404   1.400       .  A
C403        C408   1.413       .  A
C404        C405   1.401       .  A
C404        H409   1.085       .  S
C405        C406   1.420       .  A
C405        C412   1.443       .  S
C406        C407   1.398       .  A
C407        C408   1.393       .  A
C407        H410   1.085       .  S
C408        C411   1.437       .  S
C411        N413   1.155       .  T
C412        N414   1.157   1_565  T
C415        C416   1.416       .  A
C415        C420   1.419       .  A
C416        C417   1.401       .  A
C416        H421   1.075       .  S
C417        C418   1.409       .  A
C417        C424   1.445       .  S
C418        C419   1.406       .  A
C419        C420   1.396       .  A
C419        H422   1.085       .  S
C420        C423   1.446       .  S
C423        N425   1.157       .  T
C424        N426   1.157       .  T
C427        N432   1.364       .  A
N428        C429   1.367       .  A
C429        N430   1.362       .  A
C429        C468   1.492       .  S
C431        N432   1.356       .  A
C433        N434   1.358       .  A
C433        N438   1.367       .  A
C433        C441   1.490       .  S
N434        C435   1.365       .  A
C435        N436   1.359       .  A
C435        C453   1.494       .  S
N436        C437   1.369       .  A
C437        N438   1.359       .  A
C437        C465   1.495       .  S
C439        C440   1.529       .  S
C439        C445   1.559       .  S
C439        C443   1.521       .  S
C439        C557   1.540       .  S
C440        H447   1.082       .  S
C440        C441   1.363       .  D
C442        C446   1.520       .  S
C442        H448   1.110       .  S
C443        H449   1.088       .  S
C443        C444   1.360       .  D
C445        H450   1.086       .  S
C446        C545   1.482       .  S
C451       C1020   1.523       .  S
C451        C457   1.562       .  S
C451        C455   1.520       .  S
C451        C533   1.530       .  S
C452       C1019   1.523       .  S
C452        H459   1.088       .  S
C452        C453   1.364       .  D
C454        C458   1.515       .  S
C454        C882   1.559   1_456  S
C454        H460   1.111   1_455  S
C455        H461   1.088       .  S
C455        C456   1.361       .  D
C456        C880   1.559       .  S
C457        H462   1.078       .  S
C457        C884   1.365       .  D
C458        C521   1.469       .  S
C458        C883   1.365   1_556  D
C463        C469   1.562       .  S
C463        C467   1.519       .  S
C463        C497   1.540       .  S
C464        H471   1.082       .  S
C464        C465   1.362       .  D
C466        C470   1.522       .  S
C466        H472   1.109       .  S
C467        H473   1.088       .  S
C467        C468   1.359       .  D
C470        C512   1.489       .  S
Fe475       O491   2.035   1_545  S
Fe475       O488   2.083   1_545  S
Fe475       O486   1.964       .  S
Fe476      O1047   2.042       .  S
Fe476       O483   2.078       .  S
Fe476       O487   2.037       .  S
Fe476      O1060   2.085       .  S
Fe476       O486   1.957   1_565  S
Fe477       O495   2.083       .  S
Fe477       O482   2.036       .  S
Fe477       O489   2.020       .  S
Fe477       O478   2.076       .  S
Fe477       O770   1.963   1_455  S
O478       C1053   1.268       .  A
O479      Fe1044   2.042   1_455  S
O479        C493   1.262       .  A
O480        C485   1.262       .  A
O481       C1052   1.270       .  A
O482        C494   1.265       .  A
O483        C496   1.274       .  A
C484       O1049   1.270   1_455  A
C484        O489   1.263       .  A
C484        C524   1.472       .  S
C485       O1046   1.268       .  A
C485        C536   1.457       .  S
O486       Fe761   1.963       .  S
O487        C490   1.264       .  A
O488        C490   1.272       .  A
C490        C560   1.487       .  S
O491        C496   1.262       .  A
O492      Fe1044   2.085   1_455  S
C494        C500   1.484       .  S
C496        C548   1.485       .  S
C497        C502   1.419       .  A
C498        C499   1.400       .  A
C498        H503   1.075       .  S
C499        C506   1.445       .  S
C500        C501   1.406       .  A
C501        C502   1.398       .  A
C501        H504   1.085       .  S
C502        C505   1.446       .  S
C505        N507   1.157       .  T
C506        N508   1.157       .  T
C509        C510   1.400       .  A
C510        C511   1.398       .  A
C510        H515   1.085       .  S
C511        C512   1.417       .  A
C511        C518   1.439       .  S
C513        C514   1.401       .  A
C513        H516   1.085       .  S
C514        C517   1.441       .  S
C517        N519   1.156   1_455  T
C518        N520   1.156       .  T
C521       C1090   1.403   1_455  A
C521        C526   1.407       .  A
C522       C1089   1.403       .  A
C522        C523   1.395       .  A
C522        H527   1.085       .  S
C523       C1092   1.411       .  A
C523        C530   1.444       .  S
C524       C1091   1.411   1_455  A
C524        C525   1.407       .  A
C525        C526   1.390       .  A
C525        H528   1.085       .  S
C526        C529   1.445       .  S
C529        N531   1.157       .  T
C530        N532   1.157       .  T
C533       C1102   1.409       .  A
C533        C538   1.426       .  A
C534       C1101   1.409       .  A
C534        C535   1.387       .  A
C534        H539   1.074       .  S
C535       C1104   1.402       .  A
C535        C542   1.445       .  S
C536       C1103   1.402       .  A
C536        C537   1.396       .  A
C537        C538   1.402       .  A
C537        H540   1.085       .  S
C538        C541   1.446       .  S
C541        N543   1.158       .  T
C542        N544   1.156   1_455  T
C545        C546   1.400       .  A
C545        C550   1.413       .  A
C546        C547   1.401       .  A
C546        H551   1.085       .  S
C547        C548   1.420       .  A
C547        C554   1.443       .  S
C548        C549   1.398       .  A
C549        C550   1.393       .  A
C549        H552   1.085       .  S
C550        C553   1.436       .  S
C553        N555   1.155       .  T
C554        N556   1.157   1_565  T
C557        C558   1.416       .  A
C557        C562   1.419       .  A
C558        C559   1.401       .  A
C558        H563   1.075       .  S
C559        C560   1.409       .  A
C559        C566   1.445       .  S
C560        C561   1.406       .  A
C561        C562   1.396       .  A
C561        H564   1.085       .  S
C562        C565   1.446       .  S
C565        N567   1.157       .  T
C566        N568   1.157       .  T
C569        N712   1.359       .  A
C569        N574   1.364       .  A
C569        C728   1.486       .  S
N570        C711   1.359       .  A
N570        C571   1.367       .  A
C571        N572   1.362       .  A
C571        C610   1.492   1_556  S
N572        C715   1.368       .  A
C573        N714   1.368       .  A
C573        N574   1.356       .  A
C573        C740   1.489       .  S
C575        N576   1.358       .  A
C575        N580   1.367       .  A
C575        C583   1.490       .  S
N576        C577   1.365       .  A
C577        N578   1.359       .  A
C577        C595   1.494   1_556  S
N578        C579   1.369       .  A
C579        N580   1.359       .  A
C579        C607   1.495       .  S
C581        C582   1.529       .  S
C581        C587   1.559       .  S
C581        C585   1.521       .  S
C581        C699   1.540       .  S
C582        H589   1.082       .  S
C582        C583   1.363   1_554  D
C583        C726   1.557       .  S
C584        C725   1.557       .  S
C584        C588   1.520       .  S
C584        C728   1.559       .  S
C584        H590   1.110       .  S
C585        H591   1.088       .  S
C585        C586   1.360       .  D
C586        C711   1.486   1_554  S
C586        C726   1.559   1_554  S
C587        H592   1.086       .  S
C587        C730   1.374   1_554  D
C588        C687   1.482       .  S
C588        C729   1.374       .  D
C593        C599   1.562       .  S
C593        C597   1.520   1_455  S
C593        C675   1.530       .  S
C594        H601   1.088       .  S
C594        C595   1.364       .  D
C595        C738   1.557   1_554  S
C596        C737   1.557       .  S
C596        C600   1.515       .  S
C596        H602   1.111       .  S
C597        H603   1.088       .  S
C597        C598   1.361       .  D
C598        C715   1.489   1_554  S
C599        H604   1.078       .  S
C600        C663   1.469       .  S
C605        C890   1.526       .  S
C605        C611   1.562       .  S
C605        C609   1.519   1_565  S
C605        C639   1.540       .  S
C606        C889   1.526       .  S
C606        H613   1.082       .  S
C606        C607   1.362   1_554  D
C607       C1034   1.559       .  S
C608       C1033   1.559   1_545  S
C608        C612   1.522       .  S
C608        C752   1.565       .  S
C608        H614   1.109       .  S
C609        H615   1.088       .  S
C609        C610   1.359       .  D
C610        C750   1.565   1_554  S
C611        H900   1.086       .  S
C611        C754   1.378   1_564  D
C612        C654   1.489   1_545  S
C612        C753   1.378   1_545  D
H616        C895   1.086       .  S
Fe617       O633   2.035       .  S
Fe617       O907   2.073       .  S
Fe617       O630   2.083       .  S
Fe617       O906   2.028       .  S
Fe617       O628   1.964       .  S
Fe618       O625   2.078       .  S
Fe618       O629   2.037       .  S
Fe618       O628   1.957       .  S
Fe619       O637   2.083       .  S
Fe619       O624   2.036       .  S
Fe619       O631   2.020       .  S
Fe619       O620   2.076       .  S
O621        C635   1.262       .  A
O622       Fe901   2.028       .  S
O622        C627   1.262   1_655  A
O623       Fe901   2.073       .  S
O624        C636   1.265   1_545  A
O625        C638   1.274       .  A
C626        O631   1.263       .  A
C626        C666   1.472       .  S
C627        C678   1.457       .  S
O629        C632   1.264       .  A
O630        C632   1.272       .  A
C632        C702   1.487       .  S
O633        C638   1.262       .  A
O634        C920   1.274       .  A
C635        O921   1.272       .  A
C635        C935   1.490       .  S
C636        O918   1.274       .  A
C636        C642   1.484       .  S
O637        C919   1.272   1_545  A
C638        C690   1.485       .  S
C639        C924   1.417       .  A
C639        C644   1.419   1_565  A
C640        C923   1.417       .  A
C640        C641   1.400       .  A
C640        H645   1.075       .  S
C641        C926   1.407       .  A
C641        C648   1.445       .  S
C642        C925   1.407       .  A
C642        C643   1.406   1_565  A
C643        C644   1.398       .  A
C643        H646   1.085       .  S
C644        C647   1.446       .  S
C647        N649   1.157       .  T
C648        N650   1.157       .  T
C651        C919   1.490       .  S
C651        C652   1.400   1_565  A
C651        C940   1.420       .  A
C652        C653   1.398       .  A
C652        H657   1.085       .  S
C653        C654   1.417   1_545  A
C653        C660   1.439       .  S
C654        C939   1.400       .  A
C655        C938   1.400       .  A
C655        C656   1.401       .  A
C655        H658   1.085       .  S
C656        C935   1.420       .  A
C656        C659   1.441       .  S
C659        N661   1.156       .  T
C660        N662   1.156       .  T
C663        C668   1.407       .  A
C664        C665   1.395       .  A
C664        H669   1.085       .  S
C665        C672   1.444       .  S
C666        C667   1.407       .  A
C667        C668   1.390       .  A
C667        H670   1.085       .  S
C668        C671   1.445       .  S
C671        N673   1.157       .  T
C672        N674   1.157       .  T
C675        C680   1.426       .  A
C676        C677   1.387       .  A
C676        H681   1.074       .  S
C677        C684   1.445       .  S
C678        C679   1.396       .  A
C679        C680   1.402       .  A
C679        H682   1.085       .  S
C680        C683   1.446       .  S
C683        N685   1.158       .  T
C684        N686   1.156   1_545  T
C687        C688   1.400       .  A
C687        C692   1.413       .  A
C688        C689   1.401       .  A
C688        H693   1.085       .  S
C689        C690   1.420       .  A
C689        C696   1.443       .  S
C690        C691   1.398       .  A
C691        C692   1.393       .  A
C691        H694   1.085       .  S
C692        C695   1.437       .  S
C695        N697   1.155       .  T
C696        N698   1.157       .  T
C699        C700   1.416       .  A
C699        C704   1.419       .  A
C700        C701   1.401       .  A
C700        H705   1.075       .  S
C701        C702   1.409       .  A
C701        C708   1.445       .  S
C702        C703   1.406       .  A
C703        C704   1.396       .  A
C703        H706   1.085       .  S
C704        C707   1.446       .  S
C707        N709   1.157       .  T
C708        N710   1.157       .  T
C711        N716   1.364       .  A
N712        C713   1.367       .  A
C713        N714   1.362       .  A
C713        C752   1.492       .  S
C715        N716   1.356       .  A
C717        N718   1.358       .  A
C717        N722   1.367       .  A
C717        C725   1.490       .  S
N718        C719   1.365       .  A
C719        N720   1.359       .  A
C719        C737   1.494       .  S
N720        C721   1.369       .  A
C721        N722   1.359       .  A
C721        C749   1.495       .  S
C723        C724   1.529       .  S
C723        C729   1.559       .  S
C723        C727   1.521       .  S
C723        C841   1.540       .  S
C724        H731   1.082       .  S
C724        C725   1.363       .  D
C726        C730   1.520       .  S
C726        H732   1.110       .  S
C727        H733   1.088       .  S
C727        C728   1.360       .  D
C729        H734   1.086       .  S
C730        C829   1.482       .  S
C735        C741   1.562       .  S
C735        C739   1.520   1_455  S
C735        C817   1.530       .  S
C736        H743   1.088       .  S
C736        C737   1.364       .  D
C738        C742   1.515       .  S
C738        H744   1.111       .  S
C739        H745   1.088       .  S
C739        C740   1.361       .  D
C741        H746   1.078       .  S
C742        C805   1.469       .  S
C747       C1032   1.526       .  S
C747        C753   1.562       .  S
C747        C751   1.519   1_565  S
C747        C781   1.540       .  S
C748       C1031   1.526       .  S
C748        H755   1.082       .  S
C748        C749   1.362       .  D
C749        C892   1.559       .  S
C750        C891   1.559   1_545  S
C750        C754   1.522       .  S
C750        H756   1.109       .  S
C751        H757   1.088       .  S
C751        C752   1.359       .  D
C753       H1042   1.086       .  S
C754        C796   1.489   1_545  S
H758       C1037   1.086       .  S
Fe759       O775   2.035       .  S
Fe759      O1049   2.073       .  S
Fe759       O772   2.083       .  S
Fe759      O1048   2.028       .  S
Fe759       O770   1.964       .  S
Fe760       O767   2.078       .  S
Fe760       O771   2.037       .  S
Fe760       O770   1.957       .  S
Fe761       O779   2.083       .  S
Fe761       O766   2.036       .  S
Fe761       O773   2.020       .  S
Fe761       O762   2.076       .  S
O763        C777   1.262       .  A
O764      Fe1043   2.028       .  S
O764        C769   1.262   1_655  A
O765      Fe1043   2.073       .  S
O766        C778   1.265   1_545  A
O767        C780   1.274       .  A
C768        O773   1.263       .  A
C768        C808   1.472       .  S
C769        C820   1.457       .  S
O771        C774   1.264       .  A
O772        C774   1.272       .  A
C774        C844   1.487       .  S
O775        C780   1.262       .  A
O776       C1062   1.274       .  A
C777       O1063   1.272       .  A
C777       C1077   1.490       .  S
C778       O1060   1.274       .  A
C778        C784   1.484       .  S
O779       C1061   1.272   1_545  A
C780        C832   1.485       .  S
C781       C1066   1.417       .  A
C781        C786   1.419   1_565  A
C782       C1065   1.417       .  A
C782        C783   1.400       .  A
C782        H787   1.075       .  S
C783       C1068   1.407       .  A
C783        C790   1.445       .  S
C784       C1067   1.407       .  A
C784        C785   1.406   1_565  A
C785        C786   1.398       .  A
C785        H788   1.085       .  S
C786        C789   1.446       .  S
C789        N791   1.157       .  T
C790        N792   1.157       .  T
C793       C1061   1.490       .  S
C793        C794   1.400   1_565  A
C793       C1082   1.420       .  A
C794        C795   1.398       .  A
C794        H799   1.085       .  S
C795        C796   1.417   1_545  A
C795        C802   1.439       .  S
C796       C1081   1.400       .  A
C797       C1080   1.400       .  A
C797        C798   1.401       .  A
C797        H800   1.085       .  S
C798       C1077   1.420       .  A
C798        C801   1.441       .  S
C801        N803   1.156       .  T
C802        N804   1.156       .  T
C805        C810   1.407       .  A
C806        C807   1.395       .  A
C806        H811   1.085       .  S
C807        C814   1.444       .  S
C808        C809   1.407       .  A
C809        C810   1.390       .  A
C809        H812   1.085       .  S
C810        C813   1.445       .  S
C813        N815   1.157       .  T
C814        N816   1.157       .  T
C817        C822   1.426       .  A
C818        C819   1.387       .  A
C818        H823   1.074       .  S
C819        C826   1.445       .  S
C820        C821   1.396       .  A
C821        C822   1.402       .  A
C821        H824   1.085       .  S
C822        C825   1.446       .  S
C825        N827   1.158       .  T
C826        N828   1.156   1_545  T
C829        C830   1.400       .  A
C829        C834   1.413       .  A
C830        C831   1.401       .  A
C830        H835   1.085       .  S
C831        C832   1.420       .  A
C831        C838   1.443       .  S
C832        C833   1.398       .  A
C833        C834   1.393       .  A
C833        H836   1.085       .  S
C834        C837   1.436       .  S
C837        N839   1.155       .  T
C838        N840   1.157       .  T
C841        C842   1.416       .  A
C841        C846   1.419       .  A
C842        C843   1.401       .  A
C842        H847   1.075       .  S
C843        C844   1.409       .  A
C843        C850   1.445       .  S
C844        C845   1.406       .  A
C845        C846   1.396       .  A
C845        H848   1.085       .  S
C846        C849   1.446       .  S
C849        N851   1.157       .  T
C850        N852   1.157       .  T
C853        N996   1.359       .  A
C853        N858   1.364       .  A
C853       C1012   1.486       .  S
N854        C995   1.359       .  A
N854        C855   1.367       .  A
C855        N856   1.362       .  A
C855        C894   1.492   1_556  S
N856        C999   1.368       .  A
C857        N998   1.368       .  A
C857        N858   1.356       .  A
C857       C1024   1.489       .  S
C859        N860   1.358       .  A
C859        N864   1.367       .  A
C859        C867   1.490       .  S
N860        C861   1.365       .  A
C861        N862   1.359       .  A
C861        C879   1.494   1_556  S
N862        C863   1.369       .  A
C863        N864   1.359       .  A
C863        C891   1.495       .  S
C865        C866   1.529       .  S
C865        C871   1.559       .  S
C865        C869   1.521       .  S
C865        C983   1.540       .  S
C866        H873   1.082       .  S
C866        C867   1.363   1_554  D
C867       C1010   1.557       .  S
C868       C1009   1.557       .  S
C868        C872   1.520       .  S
C868       C1012   1.559       .  S
C868        H874   1.110       .  S
C869        H875   1.088       .  S
C869        C870   1.360       .  D
C870        C995   1.486   1_554  S
C870       C1010   1.559   1_554  S
C871        H876   1.086       .  S
C871       C1014   1.374   1_554  D
C872        C971   1.482       .  S
C872       C1013   1.374       .  D
C877        C883   1.562       .  S
C877        C881   1.520   1_455  S
C877        C959   1.530       .  S
C878        H885   1.088       .  S
C878        C879   1.364       .  D
C879       C1022   1.557   1_554  S
C880       C1021   1.557       .  S
C880        C884   1.515       .  S
C880        H886   1.111       .  S
C881        H887   1.088       .  S
C881        C882   1.361       .  D
C882        C999   1.489   1_554  S
C883        H888   1.078       .  S
C884        C947   1.469       .  S
C889        C895   1.562       .  S
C889        C893   1.519       .  S
C889        C923   1.540       .  S
C890        H897   1.082       .  S
C890        C891   1.362   1_554  D
C892        C896   1.522       .  S
C892       C1036   1.565       .  S
C892        H898   1.109       .  S
C893        H899   1.088       .  S
C893        C894   1.359       .  D
C894       C1034   1.565   1_554  S
C895       C1038   1.378   1_554  D
C896        C938   1.489       .  S
C896       C1037   1.378       .  D
Fe901       O917   2.035   1_545  S
Fe901       O914   2.083   1_545  S
Fe901       O912   1.964       .  S
Fe902       O909   2.078       .  S
Fe902       O913   2.037       .  S
Fe902       O912   1.957   1_565  S
Fe903       O921   2.083       .  S
Fe903       O908   2.036       .  S
Fe903       O915   2.020       .  S
Fe903       O904   2.076       .  S
O905        C919   1.262       .  A
O906        C911   1.262   1_655  A
O908        C920   1.265       .  A
O909        C922   1.274       .  A
C910        O915   1.263       .  A
C910        C950   1.472       .  S
C911        C962   1.457       .  S
O913        C916   1.264       .  A
O914        C916   1.272       .  A
C916        C986   1.487       .  S
O917        C922   1.262       .  A
C920        C926   1.484       .  S
C922        C974   1.485       .  S
C923        C928   1.419       .  A
C924        C925   1.400       .  A
C924        H929   1.075       .  S
C925        C932   1.445       .  S
C926        C927   1.406       .  A
C927        C928   1.398       .  A
C927        H930   1.085       .  S
C928        C931   1.446       .  S
C931        N933   1.157       .  T
C932        N934   1.157       .  T
C935        C936   1.400       .  A
C936        C937   1.398       .  A
C936        H941   1.085       .  S
C937        C938   1.417       .  A
C937        C944   1.439       .  S
C939        C940   1.401       .  A
C939        H942   1.085       .  S
C940        C943   1.441       .  S
C943        N945   1.156       .  T
C944        N946   1.156       .  T
C947        C952   1.407       .  A
C948        C949   1.395       .  A
C948        H953   1.085       .  S
C949        C956   1.444       .  S
C950        C951   1.407       .  A
C951        C952   1.390       .  A
C951        H954   1.085       .  S
C952        C955   1.445       .  S
C955        N957   1.157       .  T
C956        N958   1.157       .  T
C959        C964   1.426       .  A
C960        C961   1.387       .  A
C960        H965   1.074       .  S
C961        C968   1.445       .  S
C962        C963   1.396       .  A
C963        C964   1.402       .  A
C963        H966   1.085       .  S
C964        C967   1.446       .  S
C967        N969   1.158       .  T
C968        N970   1.156       .  T
C971        C972   1.400       .  A
C971        C976   1.413       .  A
C972        C973   1.401       .  A
C972        H977   1.085       .  S
C973        C974   1.420       .  A
C973        C980   1.443       .  S
C974        C975   1.398       .  A
C975        C976   1.393       .  A
C975        H978   1.085       .  S
C976        C979   1.437       .  S
C979        N981   1.155       .  T
C980        N982   1.157   1_565  T
C983        C984   1.416       .  A
C983        C988   1.419       .  A
C984        C985   1.401       .  A
C984        H989   1.075       .  S
C985        C986   1.409       .  A
C985        C992   1.445       .  S
C986        C987   1.406       .  A
C987        C988   1.396       .  A
C987        H990   1.085       .  S
C988        C991   1.446       .  S
C991        N993   1.157       .  T
C992        N994   1.157       .  T
C995       N1000   1.364       .  A
N996        C997   1.367       .  A
C997        N998   1.362       .  A
C997       C1036   1.492       .  S
C999       N1000   1.356       .  A
C1001      N1002   1.358       .  A
C1001      N1006   1.367       .  A
C1001      C1009   1.490       .  S
N1002      C1003   1.365       .  A
C1003      N1004   1.359       .  A
C1003      C1021   1.494       .  S
N1004      C1005   1.369       .  A
C1005      N1006   1.359       .  A
C1005      C1033   1.495       .  S
C1007      C1008   1.529       .  S
C1007      C1013   1.559       .  S
C1007      C1011   1.521       .  S
C1007      C1125   1.540       .  S
C1008      H1015   1.082       .  S
C1008      C1009   1.363       .  D
C1010      C1014   1.520       .  S
C1010      H1016   1.110       .  S
C1011      H1017   1.088       .  S
C1011      C1012   1.360       .  D
C1013      H1018   1.086       .  S
C1014      C1113   1.482       .  S
C1019      C1025   1.562       .  S
C1019      C1023   1.520   1_455  S
C1019      C1101   1.530       .  S
C1020      H1027   1.088       .  S
C1020      C1021   1.364       .  D
C1022      C1026   1.515       .  S
C1022      H1028   1.111       .  S
C1023      H1029   1.088       .  S
C1023      C1024   1.361       .  D
C1025      H1030   1.078       .  S
C1026      C1089   1.469       .  S
C1031      C1037   1.562       .  S
C1031      C1035   1.519       .  S
C1031      C1065   1.540       .  S
C1032      H1039   1.082       .  S
C1032      C1033   1.362       .  D
C1034      C1038   1.522       .  S
C1034      H1040   1.109       .  S
C1035      H1041   1.088       .  S
C1035      C1036   1.359       .  D
C1038      C1080   1.489       .  S
Fe1043     O1059   2.035   1_545  S
Fe1043     O1056   2.083   1_545  S
Fe1043     O1054   1.964       .  S
Fe1044     O1051   2.078       .  S
Fe1044     O1055   2.037       .  S
Fe1044     O1054   1.957   1_565  S
Fe1045     O1063   2.083       .  S
Fe1045     O1050   2.036       .  S
Fe1045     O1057   2.020       .  S
Fe1045     O1046   2.076       .  S
O1047      C1061   1.262       .  A
O1048      C1053   1.262   1_655  A
O1050      C1062   1.265       .  A
O1051      C1064   1.274       .  A
C1052      O1057   1.263       .  A
C1052      C1092   1.472       .  S
C1053      C1104   1.457       .  S
O1055      C1058   1.264       .  A
O1056      C1058   1.272       .  A
C1058      C1128   1.487       .  S
O1059      C1064   1.262       .  A
C1062      C1068   1.484       .  S
C1064      C1116   1.485       .  S
C1065      C1070   1.419       .  A
C1066      C1067   1.400       .  A
C1066      H1071   1.075       .  S
C1067      C1074   1.445       .  S
C1068      C1069   1.406       .  A
C1069      C1070   1.398       .  A
C1069      H1072   1.085       .  S
C1070      C1073   1.446       .  S
C1073      N1075   1.157       .  T
C1074      N1076   1.157       .  T
C1077      C1078   1.400       .  A
C1078      C1079   1.398       .  A
C1078      H1083   1.085       .  S
C1079      C1080   1.417       .  A
C1079      C1086   1.439       .  S
C1081      C1082   1.401       .  A
C1081      H1084   1.085       .  S
C1082      C1085   1.441       .  S
C1085      N1087   1.156       .  T
C1086      N1088   1.156       .  T
C1089      C1094   1.407       .  A
C1090      C1091   1.395       .  A
C1090      H1095   1.085       .  S
C1091      C1098   1.444       .  S
C1092      C1093   1.407       .  A
C1093      C1094   1.390       .  A
C1093      H1096   1.085       .  S
C1094      C1097   1.445       .  S
C1097      N1099   1.157       .  T
C1098      N1100   1.157       .  T
C1101      C1106   1.426       .  A
C1102      C1103   1.387       .  A
C1102      H1107   1.074       .  S
C1103      C1110   1.445       .  S
C1104      C1105   1.396       .  A
C1105      C1106   1.402       .  A
C1105      H1108   1.085       .  S
C1106      C1109   1.446       .  S
C1109      N1111   1.158       .  T
C1110      N1112   1.156       .  T
C1113      C1114   1.400       .  A
C1113      C1118   1.413       .  A
C1114      C1115   1.401       .  A
C1114      H1119   1.085       .  S
C1115      C1116   1.420       .  A
C1115      C1122   1.443       .  S
C1116      C1117   1.398       .  A
C1117      C1118   1.393       .  A
C1117      H1120   1.085       .  S
C1118      C1121   1.436       .  S
C1121      N1123   1.155       .  T
C1122      N1124   1.157   1_565  T
C1125      C1126   1.416       .  A
C1125      C1130   1.419       .  A
C1126      C1127   1.401       .  A
C1126      H1131   1.075       .  S
C1127      C1128   1.409       .  A
C1127      C1134   1.445       .  S
C1128      C1129   1.406       .  A
C1129      C1130   1.396       .  A
C1129      H1132   1.085       .  S
C1130      C1133   1.446       .  S
C1133      N1135   1.157       .  T
C1134      N1136   1.157       .  T
