geometry optimzed in LAMMPS
_audit_creation_date              2020-11-30 
_audit_creation_method            'lammps2cif' 
_symmetry_space_group_name_H-M    'P1' 
_symmetry_Int_Tables_number       1 
_symmetry_cell_setting            triclinic 
loop_ 
_symmetry_equiv_pos_as_xyz 
  x,y,z 
_cell_length_a                    34.1269286 
_cell_length_b                    34.16686471664716 
_cell_length_c                    88.29112165410514 
_cell_angle_alpha                 90.08299064913876 
_cell_angle_beta                  90.17294890945477 
_cell_angle_gamma                 120.10735039958165 
loop_ 
_atom_site_label 
_atom_site_type_symbol 
_atom_site_fract_x 
_atom_site_fract_y 
_atom_site_fract_z 
_atom_site_charge 
C1          C  0.23386685  0.91386140  0.12896599     0.05100
C2          C  0.21100978  0.90331381  0.11504629    -0.11000
C3          C  0.20461693  0.93545511  0.10741151     0.02600
C4          C  0.22230984  0.97898055  0.11355295    -0.09600
C5          C  0.24591021  0.99014242  0.12735111     0.05100
C6          C  0.25199291  0.95757733  0.13497515    -0.09000
H7          H  0.19692448  0.86949918  0.11034332     0.10700
H8          H  0.21606756  0.00359186  0.10792980     0.08200
H9          H  0.26847268  0.96546697  0.14596206     0.08100
C10         C  0.31251020  0.32309293  0.19886785     0.05100
C11         C  0.30597022  0.28825546  0.18895753    -0.11000
C12         C  0.31826602  0.25650642  0.19336061     0.02600
C13         C  0.33704864  0.25960840  0.20774653    -0.09600
C14         C  0.34392306  0.29454428  0.21769349     0.05100
C15         C  0.33153240  0.32619162  0.21322000    -0.09000
H16         H  0.29133375  0.28585654  0.17782601     0.10700
H17         H  0.34647044  0.23497482  0.21116480     0.08200
H18         H  0.33701935  0.35337010  0.22082419     0.08100
C19         C  0.95455892  0.25774829  0.14346734     0.05100
C20         C  0.91847038  0.23070099  0.15309821    -0.11000
C21         C  0.88391716  0.18818361  0.14829727     0.02600
C22         C  0.88631651  0.17211036  0.13397127    -0.09600
C23         C  0.92223939  0.19864599  0.12419211     0.05100
C24         C  0.95636636  0.24158613  0.12899299    -0.09000
H25         H  0.91713093  0.24279975  0.16429701     0.10700
H26         H  0.85958219  0.13891673  0.13031560     0.08200
H27         H  0.98372198  0.26278102  0.12136705     0.08100
C28         C  0.52950716  0.94941538  0.21407358     0.05100
C29         C  0.56920596  0.97326086  0.20561971    -0.11000
C30         C  0.60446261  0.01496021  0.21066877     0.02600
C31         C  0.60020319  0.03260710  0.22446959    -0.09600
C32         C  0.56090117  0.00902092  0.23315475     0.05100
C33         C  0.52503273  0.96761820  0.22783037    -0.09000
H34         H  0.57270030  0.95912254  0.19509353     0.10700
H35         H  0.62736073  0.06517003  0.22842612     0.08200
H36         H  0.49449636  0.94922300  0.23451256     0.08100
C37         C  0.89134241  0.53272599  0.20075024     0.05100
C38         C  0.88298705  0.52405376  0.21628338    -0.11000
C39         C  0.84168933  0.51528703  0.22240832     0.02600
C40         C  0.80847784  0.51505901  0.21302002    -0.09600
C41         C  0.81621682  0.52302322  0.19747660     0.05100
C42         C  0.85760707  0.53167182  0.19134450    -0.09000
H43         H  0.90895269  0.52511370  0.22368640     0.10700
H44         H  0.77653331  0.50831912  0.21778002     0.08200
H45         H  0.86385016  0.53841701  0.17932341     0.08100
C46         C  0.55024032  0.59608016  0.13116783     0.05100
C47         C  0.56515383  0.61624720  0.11691598    -0.11000
C48         C  0.60268161  0.61738963  0.11001746     0.02600
C49         C  0.62393277  0.59646437  0.11723116    -0.09600
C50         C  0.60972753  0.57666661  0.13152125     0.05100
C51         C  0.57240746  0.57602926  0.13836826    -0.09000
H52         H  0.54849225  0.63237739  0.11145405     0.10700
H53         H  0.65371707  0.59821577  0.11216801     0.08200
H54         H  0.56248334  0.56266075  0.14970940     0.08100
C55         C  0.24269226  0.64919952  0.17242041     0.04300
C56         C  0.20293182  0.60669337  0.17224473     0.04300
C57         C  0.20565418  0.56697536  0.17220886     0.04300
C58         C  0.24817382  0.56980566  0.17301810     0.04300
C59         C  0.28803176  0.61250551  0.17327363     0.04300
C60         C  0.28513979  0.65210818  0.17367968     0.04300
O61         O  0.52403155  0.25198049  0.37116116    -0.76500
C62         C  0.66852623  0.30128710  0.36906552     0.84500
O63         O  0.58789304  0.40119738  0.35123710    -0.77600
O64         O  0.68087784  0.35200757  0.32240257    -0.79100
O65         O  0.54478429  0.20734348  0.32260840    -0.78900
O66         O  0.48360992  0.21469420  0.35100221    -0.77500
Zn67       Zn  0.58166548  0.30410656  0.36379111     1.55700
O68         O  0.61985050  0.23989344  0.32383886    -0.78900
Cd69       Cd  0.52917201  0.25034577  0.33402946     1.59700
Cd70       Cd  0.59044782  0.36060624  0.33413346     1.59600
O71         O  0.49763022  0.27071552  0.31863963    -0.78900
O72         O  0.58524104  0.30351283  0.34216316    -1.89400
Cd73       Cd  0.63915325  0.29859395  0.33619912     1.59900
O74         O  0.53859551  0.34590923  0.31901872    -0.78900
O75         O  0.67601280  0.29958257  0.35501710    -0.77500
C76         C  0.58370693  0.39437796  0.36548231     0.85000
C77         C  0.48796003  0.22020654  0.36529585     0.84700
O78         O  0.63380191  0.30265379  0.37350604    -0.76500
C79         C  0.58143618  0.20798237  0.31933373     0.85500
O80         O  0.58160684  0.35923319  0.37117295    -0.76600
C81         C  0.50555985  0.30920877  0.31392304     0.85600
C82         C  0.67993925  0.38679248  0.31772225     0.85900
O83         O  0.64918972  0.39542476  0.32173652    -0.79000
C84         C  0.53598428  0.90723811  0.52482574     0.05100
C85         C  0.49986154  0.89958565  0.51532113    -0.11000
C86         C  0.45627999  0.88219843  0.52130721     0.02600
C87         C  0.44857961  0.86988871  0.53658889    -0.09600
C88         C  0.48459474  0.87852777  0.54635909     0.05100
C89         C  0.52846364  0.89807653  0.54036690    -0.09000
H90         H  0.50603882  0.90880904  0.50347864     0.10700
H91         H  0.41423718  0.85411694  0.54083699     0.08200
H92         H  0.55689590  0.90568462  0.54769996     0.08100
C93         C  0.21353125  0.99529494  0.46355252     0.05100
C94         C  0.23300072  0.02151654  0.45051254    -0.11000
C95         C  0.26592414  0.01767895  0.44227248     0.02600
C96         C  0.28090110  0.98875440  0.44748091    -0.09600
C97         C  0.26424131  0.96457622  0.46096377     0.05100
C98         C  0.22932128  0.96658421  0.46862651    -0.09000
H99         H  0.22296437  0.04532050  0.44677549     0.10700
H100        H  0.30762367  0.98699046  0.44145275     0.08200
H101        H  0.21542078  0.94666267  0.47875076     0.08100
C102        C  0.18893086  0.31076726  0.53963205     0.05100
C103        C  0.18641581  0.32427912  0.55444270    -0.11000
C104        C  0.21913100  0.36716876  0.55980494     0.02600
C105        C  0.25477859  0.39607031  0.55024171    -0.09600
C106        C  0.25798310  0.38228836  0.53558837     0.05100
C107        C  0.22500727  0.33967839  0.53033435    -0.09000
H108        H  0.15846696  0.30172753  0.56166906     0.10700
H109        H  0.27982268  0.42968119  0.55410598     0.08200
H110        H  0.22709045  0.32924718  0.51891995     0.08100
C111        C  0.58399790  0.65084439  0.46287008     0.05100
C112        C  0.58885517  0.63422316  0.44889879    -0.11000
C113        C  0.55446211  0.59209431  0.44344191     0.02600
C114        C  0.51502298  0.56739293  0.45209974    -0.09600
C115        C  0.51023723  0.58413035  0.46604087     0.05100
C116        C  0.54447400  0.62618011  0.47124563    -0.09000
H117        H  0.61993885  0.65337689  0.44258528     0.10700
H118        H  0.48931396  0.53368502  0.44851820     0.08200
H119        H  0.54144837  0.63855635  0.48223538     0.08100
C120        C  0.95621629  0.69068257  0.54627364     0.05100
C121        C  0.95515936  0.65625394  0.53736134    -0.11000
C122        C  0.97249277  0.62957557  0.54294771     0.02600
C123        C  0.99064450  0.63747747  0.55763743    -0.09600
C124        C  0.99118148  0.67141949  0.56676766     0.05100
C125        C  0.97387475  0.69791730  0.56101863    -0.09000
H126        H  0.94049527  0.65008172  0.52610375     0.10700
H127        H  0.00536179  0.61788150  0.56185252     0.08200
H128        H  0.97486417  0.72471100  0.56792149     0.08100
C129        C  0.90356793  0.29544641  0.47340346     0.05100
C130        C  0.92164011  0.33649180  0.48123374    -0.11000
C131        C  0.91739547  0.37211227  0.47525470     0.02600
C132        C  0.89607993  0.36688920  0.46118713    -0.09600
C133        C  0.87852813  0.32602254  0.45313722     0.05100
C134        C  0.88291648  0.29059052  0.45926415    -0.09000
H135        H  0.93622231  0.33964219  0.49240128     0.10700
H136        H  0.89121411  0.39389167  0.45689211     0.08200
H137        H  0.86883394  0.25853288  0.45328728     0.08100
C138        C  0.84723742  0.96612802  0.50597687     0.04300
C139        C  0.88706922  0.00846281  0.50588297     0.04300
C140        C  0.92953887  0.01125613  0.50733237     0.04300
C141        C  0.93225908  0.97142488  0.50814658     0.04300
C142        C  0.89194174  0.92899759  0.50892703     0.04300
C143        C  0.84973517  0.92629442  0.50685104     0.04300
C144        C  0.53482858  0.57895102  0.80054702     0.05100
C145        C  0.52452791  0.57816725  0.78509466    -0.11000
C146        C  0.51996946  0.61322226  0.77862879     0.02600
C147        C  0.52915170  0.65085446  0.78764127    -0.09600
C148        C  0.54185333  0.65329725  0.80287761     0.05100
C149        C  0.54382230  0.61684093  0.80933185    -0.09000
H150        H  0.51922722  0.54969027  0.77818004     0.10700
H151        H  0.52550364  0.67809275  0.78292119     0.08200
H152        H  0.55107311  0.61744887  0.82132303     0.08100
C153        C  0.62829886  0.99486882  0.87526166     0.05100
C154        C  0.64658514  0.99385304  0.88939569    -0.11000
C155        C  0.64952792  0.95591779  0.89364211     0.02600
C156        C  0.63372640  0.91884893  0.88375365    -0.09600
C157        C  0.61573969  0.91982445  0.86958391     0.05100
C158        C  0.61295483  0.95784008  0.86537709    -0.09000
H159        H  0.65912856  0.02275726  0.89695006     0.10700
H160        H  0.63652378  0.88969029  0.88693180     0.08200
H161        H  0.59941769  0.95885019  0.85436648     0.08100
C162        C  0.32918208  0.91750671  0.82257463     0.05100
C163        C  0.33911143  0.90827993  0.80808875    -0.11000
C164        C  0.30914577  0.86782426  0.80067923     0.02600
C165        C  0.26948033  0.83592593  0.80808178    -0.09600
C166        C  0.25937890  0.84484033  0.82264942     0.05100
C167        C  0.28950986  0.88573544  0.82982514    -0.09000
H168        H  0.36948549  0.93334349  0.80236043     0.10700
H169        H  0.24580298  0.80473221  0.80232142     0.08200
H170        H  0.28133965  0.89365080  0.84081711     0.08100
C171        C  0.87630824  0.61886429  0.86992910     0.05100
C172        C  0.86883293  0.63049306  0.88443063    -0.11000
C173        C  0.90484241  0.66302619  0.89306695     0.02600
C174        C  0.94896853  0.68350857  0.88736629    -0.09600
C175        C  0.95702038  0.67235722  0.87286303     0.05100
C176        C  0.92051587  0.64006358  0.86416343    -0.09000
H177        H  0.83488914  0.61412655  0.88909357     0.10700
H178        H  0.97687856  0.70888497  0.89409120     0.08200
H179        H  0.92639052  0.63216957  0.85283015     0.08100
C180        C  0.22424622  0.22072342  0.87413878     0.05100
C181        C  0.20755819  0.20104284  0.88836543    -0.11000
C182        C  0.16821558  0.19867264  0.89423647     0.02600
C183        C  0.14568778  0.21627550  0.88583139    -0.09600
C184        C  0.16156879  0.23523128  0.87154981     0.05100
C185        C  0.20059141  0.23711165  0.86570903    -0.09000
H186        H  0.22561051  0.18843991  0.89501597     0.10700
H187        H  0.11495714  0.21410188  0.89023257     0.08200
H188        H  0.21275477  0.25175818  0.85465207     0.08100
C189        C  0.93782818  0.37571857  0.80892244     0.05100
C190        C  0.95907513  0.35352289  0.81537821    -0.11000
C191        C  0.00194065  0.36261441  0.81051197     0.02600
C192        C  0.02242463  0.39213423  0.79829971    -0.09600
C193        C  0.00187131  0.41467215  0.79165058     0.05100
C194        C  0.96045067  0.40749886  0.79737388    -0.09000
H195        H  0.94241218  0.32915472  0.82432313     0.10700
H196        H  0.05405203  0.39709556  0.79386608     0.08200
H197        H  0.94603143  0.42664853  0.79277580     0.08100
C198        C  0.60930000  0.33174349  0.83931173     0.04300
C199        C  0.56336932  0.31991849  0.83969050     0.04300
C200        C  0.52969816  0.27489068  0.84236422     0.04300
C201        C  0.54181227  0.24125904  0.84358954     0.04300
C202        C  0.58766912  0.25276592  0.84283611     0.04300
C203        C  0.62150975  0.29797082  0.84027256     0.04300
O204        O  0.84608108  0.86712324  0.03737346    -0.76500
C205        C  0.98751749  0.91739940  0.03020066     0.84500
O206        O  0.90608139  0.02078072  0.02116696    -0.77600
O207        O  0.99154915  0.98154378  0.98629073    -0.79100
O208        O  0.85728332  0.83258127  0.98627792    -0.78900
O209        O  0.80230242  0.83117099  0.01770306    -0.77500
Zn210      Zn  0.90064305  0.92130227  0.02947857     1.55700
O211        O  0.93253984  0.86947073  0.98543673    -0.78900
Cd212      Cd  0.84265531  0.87192557  0.00028359     1.59700
Cd213      Cd  0.90161839  0.98288947  0.00217801     1.59600
O214        O  0.80676608  0.89376038  0.98755762    -0.78900
O215        O  0.89950023  0.92530389  0.00791168    -1.89400
Cd216      Cd  0.95316594  0.92475997  0.99926304     1.59900
O217        O  0.84505922  0.96896042  0.98947326    -0.78900
O218        O  0.99343288  0.92072054  0.01593710    -0.77500
C219        C  0.90606986  0.01150459  0.03514467     0.85000
C220        C  0.80993826  0.83452561  0.03190942     0.84700
O221        O  0.95367844  0.91712399  0.03625478    -0.76500
C222        C  0.89422880  0.83654690  0.98143870     0.85500
O223        O  0.90388022  0.97498590  0.03943848    -0.76600
C224        C  0.81199828  0.93239750  0.98426197     0.85600
C225        C  0.98810082  0.01600887  0.98301720     0.85900
O226        O  0.95654959  0.02147267  0.98839735    -0.79000
O227        O  0.31033257  0.69536493  0.63991079    -0.76500
C228        C  0.22784170  0.55394326  0.64741795     0.84500
O229        O  0.18575602  0.68895465  0.66509139    -0.77600
O230        O  0.19300368  0.57102441  0.69409026    -0.79100
O231        O  0.35784130  0.66615669  0.68689162    -0.78900
O232        O  0.36475068  0.73176348  0.65694264    -0.77500
Zn233      Zn  0.25406199  0.65246901  0.65038792     1.55700
O234        O  0.29931782  0.59695807  0.69103273    -0.78900
Cd235      Cd  0.32823745  0.69911715  0.67629441     1.59700
Cd236      Cd  0.22239446  0.67559982  0.68118886     1.59600
O237        O  0.33247496  0.74655525  0.69173209    -0.78900
O238        O  0.26274911  0.65554935  0.67172521    -1.89400
Cd239      Cd  0.24610756  0.59410522  0.67914022     1.59900
O240        O  0.26139412  0.73212135  0.69433015    -0.78900
O241        O  0.23007125  0.54812887  0.66157045    -0.77500
C242        C  0.18469801  0.68333073  0.65078529     0.85000
C243        C  0.35090691  0.72451460  0.64325031     0.84700
O244        O  0.23560839  0.59173516  0.64216770    -0.76500
C245        C  0.34084121  0.62688298  0.69274105     0.85500
O246        O  0.20831506  0.66881758  0.64444775    -0.76600
C247        C  0.30336381  0.75461416  0.69778730     0.85600
C248        C  0.17054246  0.58785405  0.69988289     0.85900
O249        O  0.17730519  0.62668389  0.69597959    -0.79000
C250        C  0.74940108  0.34800425  0.84147221     0.14700
C251        C  0.75662687  0.32941312  0.82821153     0.01600
C252        C  0.71882239  0.29925203  0.81944248     0.16600
C253        C  0.67552803  0.29046683  0.82324446     0.26000
C254        C  0.66832398  0.30843672  0.83656763    -0.40300
C255        C  0.70548550  0.33608761  0.84591746     0.33000
C256        C  0.80324778  0.34181739  0.82337139     0.01700
F257        F  0.72358328  0.27788217  0.80720754    -0.12600
F258        F  0.69939836  0.35167838  0.85932235    -0.13200
C259        C  0.83475614  0.34242123  0.83382353     0.16600
C260        C  0.87892214  0.35563910  0.82934220     0.26000
C261        C  0.89176630  0.36499474  0.81399884    -0.40300
C262        C  0.85955680  0.36274410  0.80345158     0.33000
C263        C  0.81661838  0.35310139  0.80818295     0.14700
F264        F  0.82270295  0.32936162  0.84839119    -0.12600
F265        F  0.86888805  0.36864851  0.78841502    -0.13200
F266        F  0.90913776  0.35989235  0.84017542    -0.15400
F267        F  0.78824014  0.35519699  0.79782334    -0.14000
F268        F  0.78482757  0.37859512  0.84997476    -0.14000
F269        F  0.64048039  0.26466974  0.81376702    -0.15400
C270        C  0.01735795  0.46430647  0.75224615     0.14700
C271        C  0.06396906  0.49527640  0.75213511     0.01600
C272        C  0.08982482  0.50180234  0.76526229     0.16600
C273        C  0.06945715  0.47666863  0.77830024     0.26000
C274        C  0.02288266  0.44437294  0.77834030    -0.40300
C275        C  0.99688334  0.43897916  0.76523873     0.33000
C276        C  0.08655915  0.51762955  0.73794380     0.01700
F277        F  0.13510420  0.53149031  0.76525896    -0.12600
F278        F  0.95211304  0.40753553  0.76473167    -0.13200
C279        C  0.09710714  0.56207039  0.73486546     0.16600
C280        C  0.12228562  0.58433652  0.72199811     0.26000
C281        C  0.13766369  0.56240709  0.71209169    -0.40300
C282        C  0.12479332  0.51686191  0.71493438     0.33000
C283        C  0.09962015  0.49486047  0.72776554     0.14700
F284        F  0.08409804  0.58426590  0.74456224    -0.12600
F285        F  0.13743174  0.49371897  0.70552352    -0.13200
F286        F  0.13326767  0.62794841  0.71968738    -0.15400
F287        F  0.08930306  0.45166066  0.73057694    -0.14000
F288        F  0.99203478  0.45760301  0.73958716    -0.14000
F289        F  0.09531464  0.48365855  0.79084274    -0.15400
C290        C  0.34237053  0.27336647  0.85771352     0.14700
C291        C  0.34993498  0.23665769  0.85774920     0.01600
C292        C  0.31584407  0.19428238  0.86288378     0.16600
C293        C  0.27460362  0.18874991  0.86803221     0.26000
C294        C  0.26717487  0.22573965  0.86825249    -0.40300
C295        C  0.30143606  0.26806487  0.86297585     0.33000
C296        C  0.39475783  0.24375329  0.85348455     0.01700
F297        F  0.32268164  0.15841077  0.86295653    -0.12600
F298        F  0.29598732  0.30478024  0.86346945    -0.13200
C299        C  0.42509232  0.24712568  0.86485221     0.16600
C300        C  0.46883441  0.25716131  0.86108957     0.26000
C301        C  0.48275946  0.26366914  0.84590189    -0.40300
C302        C  0.45220506  0.25953749  0.83446584     0.33000
C303        C  0.40841311  0.24984946  0.83825865     0.14700
F304        F  0.41265901  0.24198834  0.87963651    -0.12600
F305        F  0.46480993  0.26494169  0.81970933    -0.13200
F306        F  0.49811017  0.26153455  0.87229958    -0.15400
F307        F  0.37933427  0.24650483  0.82713409    -0.14000
F308        F  0.37538154  0.31478489  0.85308078    -0.14000
F309        F  0.24180071  0.14722070  0.87265236    -0.15400
C310        C  0.09338375  0.35214370  0.83153625     0.14700
C311        C  0.06979214  0.30672286  0.83610158     0.01600
C312        C  0.02439265  0.27910813  0.83170571     0.16600
C313        C  0.00274375  0.29668334  0.82290943     0.26000
C314        C  0.02590229  0.34257851  0.81861871    -0.40300
C315        C  0.07162802  0.37003199  0.82295276     0.33000
C316        C  0.09268375  0.28801724  0.84533126     0.01700
F317        F  0.00075414  0.23525449  0.83619814    -0.12600
F318        F  0.09494274  0.41463651  0.81933903    -0.13200
C319        C  0.11005110  0.30601750  0.85974560     0.16600
C320        C  0.13206682  0.28847325  0.86837848     0.26000
C321        C  0.13731439  0.25299604  0.86264618    -0.40300
C322        C  0.11975096  0.23487049  0.84828068     0.33000
C323        C  0.09746626  0.25216981  0.83970130     0.14700
F324        F  0.10532161  0.34030622  0.86548861    -0.12600
F325        F  0.12375066  0.20003402  0.84265682    -0.13200
F326        F  0.14911897  0.30669542  0.88219496    -0.15400
F327        F  0.08119626  0.23447214  0.82577128    -0.14000
F328        F  0.13760817  0.37918606  0.83539154    -0.14000
F329        F  0.95922039  0.26864140  0.81850132    -0.15400
C330        C  0.11847057  0.17688455  0.93365223     0.14700
C331        C  0.10487745  0.13096922  0.93559251     0.01600
C332        C  0.11499547  0.10840570  0.92427071     0.16600
C333        C  0.13732664  0.13105015  0.91107906     0.26000
C334        C  0.14937588  0.17644347  0.90889791    -0.40300
C335        C  0.14030440  0.19937060  0.92036552     0.33000
C336        C  0.07756354  0.10563335  0.94887787     0.01700
F337        F  0.10114674  0.06373905  0.92563434    -0.12600
F338        F  0.15232776  0.24348050  0.91862666    -0.13200
C339        C  0.03608074  0.10349976  0.95180541     0.16600
C340        C  0.00793957  0.07599273  0.96337174     0.26000
C341        C  0.02047517  0.04951852  0.97212828    -0.40300
C342        C  0.06284424  0.05301910  0.96952451     0.33000
C343        C  0.09116990  0.08099474  0.95805947     0.14700
F344        F  0.02157597  0.12614880  0.94290958    -0.12600
F345        F  0.07677141  0.02901777  0.97796106    -0.13200
F346        F  0.96725688  0.07339602  0.96536884    -0.15400
F347        F  0.13171831  0.08355329  0.95576898    -0.14000
F348        F  0.11015149  0.19978322  0.94456858    -0.14000
F349        F  0.14491137  0.10790226  0.90005843    -0.15400
C350        C  0.80147845  0.51031806  0.84863944     0.14700
C351        C  0.75997517  0.50954718  0.84874648     0.01600
C352        C  0.75803648  0.54707489  0.85422398     0.16600
C353        C  0.79675577  0.58412574  0.86023344     0.26000
C354        C  0.83774474  0.58367666  0.86112891    -0.40300
C355        C  0.84013268  0.54707438  0.85483492     0.33000
C356        C  0.71794605  0.46703708  0.84539470     0.01700
F357        F  0.71812158  0.54682930  0.85437731    -0.12600
F358        F  0.87888550  0.54519950  0.85573763    -0.13200
C359        C  0.68819666  0.44379805  0.85731223     0.16600
C360        C  0.65157757  0.40057264  0.85495143     0.26000
C361        C  0.64441168  0.37985656  0.84068695    -0.40300
C362        C  0.67277818  0.40372057  0.82854809     0.33000
C363        C  0.70961933  0.44724696  0.83091555     0.14700
F364        F  0.69650139  0.46171667  0.87149929    -0.12600
F365        F  0.66574270  0.38420315  0.81465925    -0.13200
F366        F  0.62517965  0.37732609  0.86689912    -0.15400
F367        F  0.73791826  0.46959534  0.81926748    -0.14000
F368        F  0.80371584  0.47388592  0.84364049    -0.14000
F369        F  0.79385533  0.61982252  0.86563802    -0.15400
C370        C  0.86577556  0.71912066  0.92108503     0.14700
C371        C  0.88644412  0.71617061  0.93445558     0.01600
C372        C  0.91003226  0.69232293  0.93449156     0.16600
C373        C  0.91479845  0.67344215  0.92107077     0.26000
C374        C  0.89589261  0.67822557  0.90754852    -0.40300
C375        C  0.87040189  0.70015763  0.90769517     0.33000
C376        C  0.88884609  0.74349885  0.94765142     0.01700
F377        F  0.92968181  0.68879456  0.94741628    -0.12600
F378        F  0.85239292  0.70558658  0.89467262    -0.13200
C379        C  0.84998495  0.73312071  0.95599396     0.16600
C380        C  0.85190927  0.76241663  0.96741917     0.26000
C381        C  0.89278893  0.80293146  0.97048800    -0.40300
C382        C  0.93201223  0.81218105  0.96232822     0.33000
C383        C  0.92990884  0.78269535  0.95103263     0.14700
F384        F  0.81006792  0.69502773  0.95287269    -0.12600
F385        F  0.97217104  0.85071609  0.96473847    -0.13200
F386        F  0.81360231  0.75132027  0.97528156    -0.15400
F387        F  0.96759592  0.79358379  0.94281458    -0.14000
F388        F  0.84369212  0.74292154  0.92080901    -0.14000
F389        F  0.93854105  0.65131090  0.92117236    -0.15400
C390        C  0.36752078  0.03449578  0.83752223     0.14700
C391        C  0.41434801  0.05205319  0.83865578     0.01600
C392        C  0.43286136  0.02433147  0.83569214     0.16600
C393        C  0.40479716  0.97958795  0.83110471     0.26000
C394        C  0.35801991  0.96236298  0.82939758    -0.40300
C395        C  0.33939829  0.98978757  0.83295220     0.33000
C396        C  0.44442243  0.10078659  0.84055299     0.01700
F397        F  0.47833873  0.04148136  0.83634983    -0.12600
F398        F  0.29447143  0.97425299  0.83098413    -0.13200
C399        C  0.46362993  0.11941496  0.85469296     0.16600
C400        C  0.49444426  0.16576166  0.85597102     0.26000
C401        C  0.50600226  0.19333444  0.84308734    -0.40300
C402        C  0.48576177  0.17467911  0.82906707     0.33000
C403        C  0.45524289  0.12860503  0.82779705     0.14700
F404        F  0.45303305  0.09261818  0.86709956    -0.12600
F405        F  0.49759515  0.20083962  0.81645654    -0.13200
F406        F  0.51372749  0.18357174  0.86959424    -0.15400
F407        F  0.43737630  0.11071007  0.81401732    -0.14000
F408        F  0.34951620  0.06147789  0.84001161    -0.14000
F409        F  0.42334286  0.95349979  0.82784904    -0.15400
C410        C  0.17315873  0.77683055  0.85273346     0.14700
C411        C  0.13254000  0.76367752  0.84496328     0.01600
C412        C  0.13342494  0.77454742  0.82962197     0.16600
C413        C  0.17471856  0.79949917  0.82216076     0.26000
C414        C  0.21572017  0.81379344  0.82998535    -0.40300
C415        C  0.21455113  0.80161412  0.84528507     0.33000
C416        C  0.08908861  0.74029283  0.85296239     0.01700
F417        F  0.09422622  0.76214902  0.82202727    -0.12600
F418        F  0.25353357  0.81424151  0.85305384    -0.13200
C419        C  0.07116064  0.76541393  0.85943746     0.16600
C420        C  0.02847926  0.74332157  0.86617982     0.26000
C421        C  0.00321251  0.69574283  0.86649925    -0.40300
C422        C  0.02177894  0.67072072  0.86025608     0.33000
C423        C  0.06450985  0.69293614  0.85352165     0.14700
F424        F  0.09466511  0.81132502  0.85890970    -0.12600
F425        F  0.99857302  0.62481153  0.86073563    -0.13200
F426        F  0.01109168  0.76835651  0.87185264    -0.15400
F427        F  0.08170120  0.66835028  0.84733707    -0.14000
F428        F  0.17265515  0.76655957  0.86760747    -0.14000
F429        F  0.17463575  0.81177617  0.80754605    -0.15400
C430        C  0.33252130  0.88431515  0.75855949     0.14700
C431        C  0.32963268  0.84321564  0.75449423     0.01600
C432        C  0.32198053  0.81114179  0.76577649     0.16600
C433        C  0.31633405  0.81959422  0.78084315     0.26000
C434        C  0.31794318  0.86012931  0.78488253    -0.40300
C435        C  0.32664770  0.89272020  0.77364388     0.33000
C436        C  0.33038306  0.83143485  0.73843607     0.01700
F437        F  0.31806914  0.77071877  0.76209486    -0.12600
F438        F  0.32759025  0.93189194  0.77715856    -0.13200
C439        C  0.36081243  0.81775493  0.73358170     0.16600
C440        C  0.35458539  0.79624640  0.71959104     0.26000
C441        C  0.31765564  0.78809575  0.71023796    -0.40300
C442        C  0.29018948  0.80620084  0.71446268     0.33000
C443        C  0.29643743  0.82758137  0.72847969     0.14700
F444        F  0.39477126  0.82252460  0.74285593    -0.12600
F445        F  0.25548585  0.80077026  0.70544564    -0.13200
F446        F  0.38220559  0.77976718  0.71592117    -0.15400
F447        F  0.26682277  0.84094924  0.73285054    -0.14000
F448        F  0.34026122  0.91591897  0.74787496    -0.14000
F449        F  0.30903704  0.78803889  0.79149445    -0.15400
C450        C  0.58084956  0.06839903  0.86297381     0.14700
C451        C  0.62052438  0.11008734  0.86069277     0.01600
C452        C  0.66290537  0.11424184  0.86363444     0.16600
C453        C  0.66552349  0.07677357  0.86861064     0.26000
C454        C  0.62577704  0.03486676  0.87062075    -0.40300
C455        C  0.58345732  0.03094105  0.86782439     0.33000
C456        C  0.61710932  0.14909364  0.85539236     0.01700
F457        F  0.70159329  0.15428138  0.86140817    -0.12600
F458        F  0.54469315  0.99093534  0.87001179    -0.13200
C459        C  0.62822833  0.18563535  0.86516612     0.16600
C460        C  0.61997380  0.22008212  0.86076701     0.26000
C461        C  0.60069930  0.21845533  0.84652985    -0.40300
C462        C  0.59154245  0.18291212  0.83647946     0.33000
C463        C  0.59951184  0.14831021  0.84092758     0.14700
F464        F  0.64493392  0.18672163  0.87923474    -0.12600
F465        F  0.57401769  0.18118430  0.82252137    -0.13200
F466        F  0.62880550  0.25403064  0.87065997    -0.15400
F467        F  0.58933755  0.11354310  0.83124666    -0.14000
F468        F  0.53958500  0.06430515  0.86073557    -0.14000
F469        F  0.70676246  0.08097448  0.87107405    -0.15400
C470        C  0.73059967  0.94900308  0.92101644     0.14700
C471        C  0.71212583  0.95055471  0.93504160     0.01600
C472        C  0.67413677  0.95621905  0.93548579     0.16600
C473        C  0.65403234  0.95893667  0.92197782     0.26000
C474        C  0.67172795  0.95583017  0.90795675    -0.40300
C475        C  0.71046543  0.95145735  0.90757881     0.33000
C476        C  0.73177483  0.94405791  0.94903291     0.01700
F477        F  0.65568282  0.95745185  0.94895271    -0.12600
F478        F  0.72880249  0.94963034  0.89415061    -0.13200
C479        C  0.75446003  0.97951211  0.95946528     0.16600
C480        C  0.77872749  0.97506059  0.97149655     0.26000
C481        C  0.78049242  0.93491501  0.97324608    -0.40300
C482        C  0.75522143  0.89850504  0.96322154     0.33000
C483        C  0.73124026  0.90318396  0.95124155     0.14700
F484        F  0.75515743  0.01926740  0.95751666    -0.12600
F485        F  0.75583921  0.85918157  0.96435325    -0.13200
F486        F  0.80156816  0.01053850  0.98111880    -0.15400
F487        F  0.70883959  0.86827699  0.94136758    -0.14000
F488        F  0.76809585  0.94482146  0.92037652    -0.14000
F489        F  0.61637043  0.96281075  0.92255554    -0.15400
C490        C  0.49783310  0.45773162  0.81105789     0.14700
C491        C  0.53391133  0.46351601  0.82027422     0.01600
C492        C  0.56964664  0.50730431  0.82342546     0.16600
C493        C  0.56994833  0.54494059  0.81710094     0.26000
C494        C  0.53422885  0.53929182  0.80761017    -0.40300
C495        C  0.49775337  0.49530060  0.80487150     0.33000
C496        C  0.53660606  0.42392740  0.82542570     0.01700
F497        F  0.60524165  0.51340791  0.83209050    -0.12600
F498        F  0.46179704  0.48866899  0.79630478    -0.13200
C499        C  0.54434965  0.39808995  0.81476880     0.16600
C500        C  0.55167860  0.36343699  0.81955004     0.26000
C501        C  0.55086978  0.35379285  0.83502612    -0.40300
C502        C  0.54125400  0.37827770  0.84569384     0.33000
C503        C  0.53447173  0.41350833  0.84090906     0.14700
F504        F  0.54674148  0.40777393  0.79977127    -0.12600
F505        F  0.53977907  0.36894087  0.86068204    -0.13200
F506        F  0.56070171  0.33982706  0.80910475    -0.15400
F507        F  0.52648537  0.43788519  0.85133589    -0.14000
F508        F  0.46287779  0.41559493  0.80796409    -0.14000
F509        F  0.60606327  0.58671627  0.81974782    -0.15400
C510        C  0.61599967  0.85245999  0.83572114     0.14700
C511        C  0.58097399  0.80890948  0.83942944     0.01600
C512        C  0.55606723  0.80221984  0.85275276     0.16600
C513        C  0.56690517  0.83854566  0.86250250     0.26000
C514        C  0.60229923  0.88204328  0.85889306    -0.40300
C515        C  0.62640997  0.88892327  0.84535448     0.33000
C516        C  0.57150183  0.77001088  0.82973851     0.01700
F517        F  0.52212518  0.76025507  0.85648597    -0.12600
F518        F  0.66107210  0.93065673  0.84177079    -0.13200
C519        C  0.60157057  0.75329440  0.82961051     0.16600
C520        C  0.59191939  0.71532175  0.82088494     0.26000
C521        C  0.55197567  0.69352805  0.81214118    -0.40300
C522        C  0.52208658  0.71071293  0.81222064     0.33000
C523        C  0.53185559  0.74870373  0.82096149     0.14700
F524        F  0.63997947  0.77347032  0.83812174    -0.12600
F525        F  0.48286390  0.69008460  0.80414198    -0.13200
F526        F  0.62197351  0.70029350  0.82078626    -0.15400
F527        F  0.50267341  0.76479812  0.82087413    -0.14000
F528        F  0.64030592  0.85945520  0.82285349    -0.14000
F529        F  0.54306062  0.83134246  0.87549203    -0.15400
C530        C  0.44222614  0.56590106  0.74443443     0.14700
C531        C  0.45507655  0.60539630  0.73601790     0.01600
C532        C  0.49382023  0.64588946  0.74051516     0.16600
C533        C  0.51757034  0.64733954  0.75361825     0.26000
C534        C  0.50154573  0.60904986  0.76301515    -0.40300
C535        C  0.46430022  0.56788647  0.75800157     0.33000
C536        C  0.42504085  0.60572690  0.72386578     0.01700
F537        F  0.50694848  0.68497189  0.73287181    -0.12600
F538        F  0.44678032  0.53017039  0.76671436    -0.13200
C539        C  0.37872512  0.58849193  0.72685090     0.16600
C540        C  0.35098528  0.59307737  0.71624598     0.26000
C541        C  0.36922292  0.61655069  0.70266980    -0.40300
C542        C  0.41513173  0.63281845  0.69943642     0.33000
C543        C  0.44264333  0.62666499  0.70983016     0.14700
F544        F  0.36072974  0.56976484  0.74046931    -0.12600
F545        F  0.43335697  0.65484365  0.68626348    -0.13200
F546        F  0.30686132  0.57738189  0.71978301    -0.15400
F547        F  0.48663502  0.64182245  0.70628953    -0.14000
F548        F  0.40655166  0.52568079  0.73994533    -0.14000
F549        F  0.55528309  0.68685754  0.75740716    -0.15400
C550        C  0.87424745  0.11194070  0.50995086     0.14700
C551        C  0.89296931  0.13389079  0.49618342     0.01600
C552        C  0.90697578  0.11325257  0.48543101     0.16600
C553        C  0.90309080  0.07154870  0.48847508     0.26000
C554        C  0.88566409  0.05009007  0.50238792    -0.40300
C555        C  0.87076468  0.07019474  0.51307750     0.33000
C556        C  0.89629192  0.17737896  0.49249142     0.01700
F557        F  0.92395376  0.13337269  0.47188861    -0.12600
F558        F  0.85414278  0.05008324  0.52663150    -0.13200
C559        C  0.93874269  0.21557356  0.48951694     0.16600
C560        C  0.94137726  0.25480540  0.48369510     0.26000
C561        C  0.90158192  0.25591048  0.48068085    -0.40300
C562        C  0.85930046  0.21845285  0.48429529     0.33000
C563        C  0.85667385  0.17941649  0.49021738     0.14700
F564        F  0.97741503  0.21423385  0.49182333    -0.12600
F565        F  0.82055464  0.21952510  0.48181790    -0.13200
F566        F  0.98247984  0.29090717  0.48035720    -0.15400
F567        F  0.81540119  0.14278806  0.49298036    -0.14000
F568        F  0.86036092  0.13143722  0.52043576    -0.14000
F569        F  0.91676522  0.05209856  0.47789242    -0.15400
C570        C  0.89517731  0.75657742  0.54201880     0.14700
C571        C  0.91555693  0.78177518  0.52890324     0.01600
C572        C  0.94764111  0.77523891  0.52111231     0.16600
C573        C  0.96000699  0.74464012  0.52657170     0.26000
C574        C  0.94061847  0.72040017  0.53994735    -0.40300
C575        C  0.90769457  0.72611263  0.54752654     0.33000
C576        C  0.90604542  0.81733912  0.52396516     0.01700
F577        F  0.96855257  0.80009755  0.50862972    -0.12600
F578        F  0.88775674  0.70219023  0.56025719    -0.13200
C579        C  0.91695037  0.85419955  0.53356404     0.16600
C580        C  0.91116609  0.88966242  0.52861820     0.26000
C581        C  0.89460176  0.88900469  0.51397317    -0.40300
C582        C  0.88281750  0.85162687  0.50444397     0.33000
C583        C  0.88852301  0.81600325  0.50943829     0.14700
F584        F  0.93476342  0.85658793  0.54754266    -0.12600
F585        F  0.86709443  0.85005101  0.49020026    -0.13200
F586        F  0.92239284  0.92520192  0.53806662    -0.15400
F587        F  0.87737571  0.78035729  0.50006482    -0.14000
F588        F  0.86352429  0.76190655  0.54955192    -0.14000
F589        F  0.99248342  0.74025711  0.51920257    -0.15400
C590        C  0.98057105  0.56662725  0.50889643     0.14700
C591        C  0.96124060  0.52256783  0.51458072     0.01600
C592        C  0.94826743  0.51406807  0.52981272     0.16600
C593        C  0.95318491  0.54917286  0.53920684     0.26000
C594        C  0.97110382  0.59324852  0.53342717    -0.40300
C595        C  0.98563818  0.60184006  0.51825935     0.33000
C596        C  0.95086623  0.48481360  0.50428644     0.01700
F597        F  0.92959095  0.47146327  0.53542647    -0.12600
F598        F  0.00438541  0.64424935  0.51247321    -0.13200
C599        C  0.98479310  0.47552723  0.49982848     0.16600
C600        C  0.97419304  0.43912476  0.49012859     0.26000
C601        C  0.92971092  0.41221451  0.48467909    -0.40300
C602        C  0.89598235  0.42199338  0.48905710     0.33000
C603        C  0.90650814  0.45800470  0.49884502     0.14700
F604        F  0.02784259  0.50131409  0.50504503    -0.12600
F605        F  0.85252515  0.39567140  0.48425927    -0.13200
F606        F  0.00718928  0.43013236  0.48601597    -0.15400
F607        F  0.87340589  0.46669025  0.50310665    -0.14000
F608        F  0.99298680  0.57511573  0.49413263    -0.14000
F609        F  0.93833387  0.53961406  0.55371697    -0.15400
C610        C  0.07236367  0.73098498  0.59912000     0.14700
C611        C  0.06232548  0.69448381  0.60875784     0.01600
C612        C  0.02498414  0.65168446  0.60550243     0.16600
C613        C  0.00005948  0.64474316  0.59220181     0.26000
C614        C  0.01224272  0.68048412  0.58196459    -0.40300
C615        C  0.04754446  0.72406347  0.58578971     0.33000
C616        C  0.09551196  0.69867733  0.62031918     0.01700
F617        F  0.01499200  0.61580334  0.61456057    -0.12600
F618        F  0.06037815  0.75914667  0.57606788    -0.13200
C619        C  0.08363241  0.68919203  0.63565383     0.16600
C620        C  0.11367152  0.68671854  0.64596009     0.26000
C621        C  0.15560844  0.69312565  0.64093560    -0.40300
C622        C  0.16810659  0.70496060  0.62570674     0.33000
C623        C  0.13831403  0.70751237  0.61552669     0.14700
F624        F  0.04242620  0.68083787  0.64049163    -0.12600
F625        F  0.20880266  0.71272419  0.62048819    -0.13200
F626        F  0.10060947  0.67535595  0.66056061    -0.15400
F627        F  0.15020748  0.71580868  0.60070618    -0.14000
F628        F  0.10819927  0.77266312  0.60213616    -0.14000
F629        F  0.96525279  0.60263457  0.58897262    -0.15400
C630        C  0.65733731  0.76860550  0.47839102     0.14700
C631        C  0.69294308  0.76495377  0.48497491     0.01600
C632        C  0.69246973  0.72369351  0.48423324     0.16600
C633        C  0.65729720  0.68678266  0.47668387     0.26000
C634        C  0.62221365  0.69073789  0.46987985    -0.40300
C635        C  0.62198421  0.73155320  0.47095170     0.33000
C636        C  0.73289635  0.80551570  0.49105986     0.01700
F637        F  0.72676444  0.71966028  0.49040328    -0.12600
F638        F  0.58777099  0.73551003  0.46467394    -0.13200
C639        C  0.74541832  0.80888338  0.50642143     0.16600
C640        C  0.78376396  0.84800894  0.51181760     0.26000
C641        C  0.80990320  0.88351758  0.50180916    -0.40300
C642        C  0.79772381  0.87945032  0.48644079     0.33000
C643        C  0.75945510  0.84094495  0.48113428     0.14700
F644        F  0.72016393  0.77470114  0.51615331    -0.12600
F645        F  0.82349295  0.91286810  0.47651752    -0.13200
F646        F  0.79518511  0.85142725  0.52669652    -0.15400
F647        F  0.74867299  0.83780588  0.46619079    -0.14000
F648        F  0.65719172  0.80824406  0.47907039    -0.14000
F649        F  0.65713199  0.64698159  0.47610264    -0.15400
C650        C  0.10720464  0.18555335  0.53582133     0.14700
C651        C  0.08348799  0.18392116  0.52257424     0.01600
C652        C  0.09551871  0.22392401  0.51465269     0.16600
C653        C  0.13024079  0.26528400  0.52013803     0.26000
C654        C  0.15319487  0.26701980  0.53362313    -0.40300
C655        C  0.14168414  0.22683364  0.54134864     0.33000
C656        C  0.04374584  0.14088485  0.51793071     0.01700
F657        F  0.07235221  0.22313110  0.50201412    -0.12600
F658        F  0.16401414  0.22757287  0.55419783    -0.13200
C659        C  0.00754675  0.11898848  0.52804415     0.16600
C660        C  0.97115909  0.07667114  0.52450007     0.26000
C661        C  0.96954468  0.05607262  0.51056667    -0.40300
C662        C  0.00478857  0.07867637  0.50008945     0.33000
C663        C  0.04208798  0.12082610  0.50384143     0.14700
F664        F  0.00762209  0.13866526  0.54143176    -0.12600
F665        F  0.00341643  0.05960041  0.48645747    -0.13200
F666        F  0.93753355  0.05526490  0.53479433    -0.15400
F667        F  0.07697710  0.14149661  0.49395448    -0.14000
F668        F  0.09645925  0.14704137  0.54349297    -0.14000
F669        F  0.14023697  0.30384642  0.51263116    -0.15400
C670        C  0.35727728  0.42627986  0.50897436     0.14700
C671        C  0.36426384  0.46945147  0.50563216     0.01600
C672        C  0.33666437  0.48423741  0.51228820     0.16600
C673        C  0.30231374  0.45605050  0.52222909     0.26000
C674        C  0.29512215  0.41270173  0.52552576    -0.40300
C675        C  0.32283055  0.39800022  0.51883880     0.33000
C676        C  0.40129193  0.49946992  0.49551602     0.01700
F677        F  0.34343616  0.52614907  0.50928908    -0.12600
F678        F  0.31688832  0.35650297  0.52204479    -0.13200
C679        C  0.39192775  0.51133585  0.48129379     0.16600
C680        C  0.42740953  0.53896068  0.47158819     0.26000
C681        C  0.47246401  0.55531719  0.47613407    -0.40300
C682        C  0.48166912  0.54358016  0.49042130     0.33000
C683        C  0.44628357  0.51575184  0.50003041     0.14700
F684        F  0.34847335  0.49553351  0.47675934    -0.12600
F685        F  0.52497741  0.55830720  0.49491720    -0.13200
F686        F  0.41793795  0.55017955  0.45786237    -0.15400
F687        F  0.45583496  0.50475074  0.51378704    -0.14000
F688        F  0.38369060  0.41151199  0.50258082    -0.14000
F689        F  0.27546804  0.47064144  0.52838693    -0.15400
C690        C  0.19781655  0.48774347  0.61086459     0.14700
C691        C  0.21022363  0.45514559  0.61403987     0.01600
C692        C  0.22498245  0.45270319  0.62870394     0.16600
C693        C  0.22877836  0.48349657  0.63989178     0.26000
C694        C  0.21778534  0.51714966  0.63654321    -0.40300
C695        C  0.20113579  0.51812145  0.62201289     0.33000
C696        C  0.21052894  0.42617398  0.60164978     0.01700
F697        F  0.23671283  0.42116443  0.63207771    -0.12600
F698        F  0.18905993  0.54929553  0.61841411    -0.13200
C699        C  0.25111686  0.42784443  0.59758593     0.16600
C700        C  0.25316116  0.40616704  0.58444298     0.26000
C701        C  0.21494700  0.38339094  0.57494949    -0.40300
C702        C  0.17376247  0.37987370  0.57944857     0.33000
C703        C  0.17152294  0.40071103  0.59276875     0.14700
F704        F  0.28952753  0.45281589  0.60581313    -0.12600
F705        F  0.13638546  0.35889974  0.57047646    -0.13200
F706        F  0.29292789  0.40860846  0.58074577    -0.15400
F707        F  0.13165291  0.39773151  0.59667237    -0.14000
F708        F  0.18464584  0.49175772  0.59669295    -0.14000
F709        F  0.24548751  0.48184554  0.65370195    -0.15400
C710        C  0.13584128  0.99164854  0.49511398     0.14700
C711        C  0.10183568  0.99392861  0.48681864     0.01600
C712        C  0.10754265  0.00177262  0.47112335     0.16600
C713        C  0.14317052  0.00151999  0.46359873     0.26000
C714        C  0.17670064  0.99777430  0.47175179    -0.40300
C715        C  0.17366301  0.99508830  0.48771464     0.33000
C716        C  0.05854293  0.98437631  0.49393020     0.01700
F717        F  0.07739144  0.00795283  0.46288329    -0.12600
F718        F  0.20703055  0.99544977  0.49622939    -0.13200
C719        C  0.05712362  0.00578546  0.50741457     0.16600
C720        C  0.01552447  0.99822525  0.51307648     0.26000
C721        C  0.97553680  0.97273599  0.50457473    -0.40300
C722        C  0.97721005  0.95075248  0.49134505     0.33000
C723        C  0.01761911  0.95443477  0.48660003     0.14700
F724        F  0.09587568  0.03567706  0.51468485    -0.12600
F725        F  0.94003215  0.92763575  0.48242569    -0.13200
F726        F  0.01470508  0.01751279  0.52642743    -0.15400
F727        F  0.01689067  0.92987146  0.47437620    -0.14000
F728        F  0.13169628  0.98409931  0.51026717    -0.14000
F729        F  0.14308356  0.00245077  0.44822632    -0.15400
C730        C  0.63298910  0.90876031  0.50400422     0.14700
C731        C  0.67013240  0.94613172  0.51082310     0.01600
C732        C  0.66290179  0.97371076  0.52087565     0.16600
C733        C  0.61892694  0.96254892  0.52477534     0.26000
C734        C  0.58167640  0.92363769  0.51865846    -0.40300
C735        C  0.58890092  0.89758101  0.50788451     0.33000
C736        C  0.71585639  0.95253207  0.50926213     0.01700
F737        F  0.69857602  0.01016668  0.52746352    -0.12600
F738        F  0.55341748  0.85940519  0.50203542    -0.13200
C739        C  0.73948937  0.96656717  0.49552098     0.16600
C740        C  0.78280170  0.97190227  0.49434731     0.26000
C741        C  0.80239286  0.96279482  0.50688639    -0.40300
C742        C  0.77855797  0.94867735  0.52056656     0.33000
C743        C  0.73562787  0.94359656  0.52175120     0.14700
F744        F  0.72066192  0.97519103  0.48334410    -0.12600
F745        F  0.79710216  0.93987959  0.53279912    -0.13200
F746        F  0.80526543  0.98522321  0.48099616    -0.15400
F747        F  0.71286405  0.92914744  0.53503359    -0.14000
F748        F  0.63947816  0.88127826  0.49448836    -0.14000
F749        F  0.61265930  0.98868228  0.53497093    -0.15400
C750        C  0.37579377  0.86528806  0.48902247     0.14700
C751        C  0.35750078  0.89163604  0.49414702     0.01600
C752        C  0.36908575  0.91168631  0.50853571     0.16600
C753        C  0.40012125  0.90713765  0.51750969     0.26000
C754        C  0.41998588  0.88227294  0.51223661    -0.40300
C755        C  0.40703095  0.86061728  0.49804611     0.33000
C756        C  0.33317569  0.90560547  0.48376301     0.01700
F757        F  0.35248789  0.93820353  0.51345192    -0.12600
F758        F  0.42538860  0.83597807  0.49283046    -0.13200
C759        C  0.28584160  0.88081614  0.48244504     0.16600
C760        C  0.26304039  0.89891064  0.47446967     0.26000
C761        C  0.28750741  0.94230603  0.46796855    -0.40300
C762        C  0.33514148  0.96633822  0.46911479     0.33000
C763        C  0.35764599  0.94787166  0.47679118     0.14700
F764        F  0.26179133  0.84010493  0.48937351    -0.12600
F765        F  0.35994715  0.00912323  0.46370386    -0.13200
F766        F  0.21719769  0.87447904  0.47333560    -0.15400
F767        F  0.40344168  0.97248596  0.47822464    -0.14000
F768        F  0.36508192  0.84608992  0.47503847    -0.14000
F769        F  0.41316280  0.92967901  0.53092908    -0.15400
C770        C  0.48453684  0.82782750  0.58461177     0.14700
C771        C  0.44959955  0.83031178  0.59197198     0.01600
C772        C  0.42951070  0.85283854  0.58507840     0.16600
C773        C  0.44312541  0.87137590  0.57066315     0.26000
C774        C  0.47578105  0.86587289  0.56262933    -0.40300
C775        C  0.49731902  0.84501691  0.56999328     0.33000
C776        C  0.42874453  0.80281116  0.60549604     0.01700
F777        F  0.39490284  0.85459988  0.59197705    -0.12600
F778        F  0.52836355  0.83814473  0.56273399    -0.13200
C779        C  0.44012410  0.82153374  0.62009325     0.16600
C780        C  0.41662540  0.79540015  0.63267837     0.26000
C781        C  0.38122352  0.75046858  0.63066694    -0.40300
C782        C  0.37169239  0.73147072  0.61599350     0.33000
C783        C  0.39515154  0.75751575  0.60355095     0.14700
F784        F  0.47290120  0.86537334  0.62206158    -0.12600
F785        F  0.33888255  0.68780041  0.61360246    -0.13200
F786        F  0.42678485  0.81474133  0.64664335    -0.15400
F787        F  0.38395741  0.73899304  0.58946255    -0.14000
F788        F  0.50422631  0.80611305  0.59123691    -0.14000
F789        F  0.42345133  0.89368486  0.56445533    -0.15400
C790        C  0.77960913  0.27550192  0.42583520     0.14700
C791        C  0.79460051  0.30879880  0.41454830     0.01600
C792        C  0.83877601  0.34613533  0.41535459     0.16600
C793        C  0.86691866  0.35094553  0.42761584     0.26000
C794        C  0.85109632  0.31867771  0.43929702    -0.40300
C795        C  0.80737679  0.28055921  0.43816913     0.33000
C796        C  0.76264713  0.30634675  0.40275410     0.01700
F797        F  0.85386151  0.37900180  0.40466048    -0.12600
F798        F  0.79044642  0.24940680  0.44942759    -0.13200
C799        C  0.72223417  0.30450317  0.40706654     0.16600
C800        C  0.69154709  0.30220044  0.39616988     0.26000
C801        C  0.70083350  0.30226146  0.38059105    -0.40300
C802        C  0.74162530  0.30422467  0.37630200     0.33000
C803        C  0.77217607  0.30619449  0.38731063     0.14700
F804        F  0.71280568  0.30583227  0.42193366    -0.12600
F805        F  0.75229666  0.30451544  0.36148641    -0.13200
F806        F  0.65283509  0.30016121  0.40101617    -0.15400
F807        F  0.81086656  0.30745107  0.38289401    -0.14000
F808        F  0.73737689  0.23865700  0.42513191    -0.14000
F809        F  0.90933497  0.38750346  0.42821837    -0.15400
C810        C  0.57535750  0.49515343  0.38001562     0.14700
C811        C  0.57309104  0.48797159  0.39570110     0.01600
C812        C  0.57389708  0.45014508  0.40140027     0.16600
C813        C  0.57751625  0.42005327  0.39162714     0.26000
C814        C  0.58047749  0.42715427  0.37579934    -0.40300
C815        C  0.57918527  0.46513127  0.37011697     0.33000
C816        C  0.57063426  0.51993029  0.40638108     0.01700
F817        F  0.57072475  0.44210352  0.41653844    -0.12600
F818        F  0.58148003  0.47332437  0.35501309    -0.13200
C819        C  0.53111994  0.52276668  0.40746396     0.16600
C820        C  0.52667975  0.54824999  0.41905992     0.26000
C821        C  0.56163666  0.57098207  0.42980907    -0.40300
C822        C  0.60195216  0.56950683  0.42823980     0.33000
C823        C  0.60637559  0.54433043  0.41659761     0.14700
F824        F  0.49596240  0.49893505  0.39779054    -0.12600
F825        F  0.63597779  0.58983457  0.43855803    -0.13200
F826        F  0.48774955  0.54975403  0.42002370    -0.15400
F827        F  0.64496194  0.54217979  0.41564461    -0.14000
F828        F  0.57455379  0.53163013  0.37432085    -0.14000
F829        F  0.57805699  0.38394775  0.39780750    -0.15400
C830        C  0.42238530  0.16430234  0.40094236     0.14700
C831        C  0.37925471  0.13377741  0.39516304     0.01600
C832        C  0.37179129  0.13118080  0.37945428     0.16600
C833        C  0.40707535  0.15881740  0.36965083     0.26000
C834        C  0.45042266  0.18977997  0.37545091    -0.40300
C835        C  0.45745043  0.19217322  0.39126076     0.33000
C836        C  0.34320927  0.10355006  0.40569763     0.01700
F837        F  0.33019272  0.10224472  0.37362428    -0.12600
F838        F  0.49846806  0.22108107  0.39749456    -0.13200
C839        C  0.33261963  0.12181288  0.41825020     0.16600
C840        C  0.30580663  0.09372060  0.42990374     0.26000
C841        C  0.28802727  0.04667290  0.42897191    -0.40300
C842        C  0.29557986  0.02814805  0.41580362     0.33000
C843        C  0.32337885  0.05641085  0.40432802     0.14700
F844        F  0.35029746  0.16722008  0.41958543    -0.12600
F845        F  0.27749551  0.98272442  0.41433000    -0.13200
F846        F  0.30016616  0.11295061  0.44256168    -0.15400
F847        F  0.33337542  0.03789390  0.39239327    -0.14000
F848        F  0.43099372  0.16636891  0.41604399    -0.14000
F849        F  0.39847406  0.15550908  0.35453756    -0.15400
C850        C  0.38551989  0.62673449  0.14974246     0.14700
C851        C  0.40779442  0.61217672  0.15964207     0.01600
C852        C  0.39249707  0.60048477  0.17461806     0.16600
C853        C  0.35470917  0.60274283  0.17954367     0.26000
C854        C  0.33181685  0.61614120  0.16943539    -0.40300
C855        C  0.34784419  0.62868349  0.15459826     0.33000
C856        C  0.44609462  0.60819868  0.15391704     0.01700
F857        F  0.41389593  0.58657618  0.18434510    -0.12600
F858        F  0.32509056  0.64003339  0.14451220    -0.13200
C859        C  0.48506090  0.64689143  0.14872842     0.16600
C860        C  0.51908039  0.64289433  0.14144610     0.26000
C861        C  0.51454688  0.60004997  0.13921230    -0.40300
C862        C  0.47612371  0.56139948  0.14482282     0.33000
C863        C  0.44198859  0.56545271  0.15210675     0.14700
F864        F  0.48970015  0.68850103  0.15052331    -0.12600
F865        F  0.47088794  0.51966552  0.14270480    -0.13200
F866        F  0.55661590  0.68092430  0.13664291    -0.15400
F867        F  0.40401544  0.52757906  0.15674909    -0.14000
F868        F  0.39905375  0.63701120  0.13512270    -0.14000
F869        F  0.33964685  0.59064240  0.19393485    -0.15400
C870        C  0.70378595  0.73245691  0.04721747     0.14700
C871        C  0.71286590  0.73692117  0.06281876     0.01600
C872        C  0.75412886  0.77251359  0.06819722     0.16600
C873        C  0.78564996  0.80388169  0.05817749     0.26000
C874        C  0.77653715  0.80029537  0.04245104    -0.40300
C875        C  0.73527312  0.76385266  0.03708923     0.33000
C876        C  0.67954930  0.70468258  0.07364193     0.01700
F877        F  0.76414332  0.77662327  0.08322666    -0.12600
F878        F  0.72503736  0.75857284  0.02208611    -0.13200
C879        C  0.66773825  0.65899633  0.07338429     0.16600
C880        C  0.63999302  0.62962336  0.08467123     0.26000
C881        C  0.62421748  0.64572679  0.09651130    -0.40300
C882        C  0.63465116  0.69118561  0.09634767     0.33000
C883        C  0.66192006  0.72029969  0.08495967     0.14700
F884        F  0.68513135  0.64346467  0.06268818    -0.12600
F885        F  0.62120177  0.70838108  0.10776613    -0.13200
F886        F  0.62980578  0.58577162  0.08433262    -0.15400
F887        F  0.67259027  0.76430979  0.08528038    -0.14000
F888        F  0.66398150  0.69813122  0.04183196    -0.14000
F889        F  0.82508323  0.83769646  0.06400917    -0.15400
C890        C  0.00492930  0.59738994  0.18140247     0.14700
C891        C  0.02384136  0.57037182  0.18489508     0.01600
C892        C  0.99856602  0.53000628  0.19295567     0.16600
C893        C  0.95482101  0.51701865  0.19772141     0.26000
C894        C  0.93600397  0.54450795  0.19457514    -0.40300
C895        C  0.96120476  0.58460424  0.18624025     0.33000
C896        C  0.07089029  0.58519939  0.18091913     0.01700
F897        F  0.01663504  0.50357259  0.19636692    -0.12600
F898        F  0.94435068  0.61241378  0.18341958    -0.13200
C899        C  0.10421088  0.60254206  0.19226562     0.16600
C900        C  0.14797769  0.61193449  0.18905637     0.26000
C901        C  0.15873577  0.60377956  0.17449835    -0.40300
C902        C  0.12601288  0.58861238  0.16292148     0.33000
C903        C  0.08207795  0.57922179  0.16615050     0.14700
F904        F  0.09378154  0.60870886  0.20657542    -0.12600
F905        F  0.13616846  0.58128589  0.14873203    -0.13200
F906        F  0.17927425  0.62644776  0.20036811    -0.15400
F907        F  0.04994280  0.56236265  0.15511125    -0.14000
F908        F  0.02949507  0.63689483  0.17382019    -0.14000
F909        F  0.93086265  0.47770072  0.20546326    -0.15400
C910        C  0.73152188  0.49912493  0.16603234     0.14700
C911        C  0.71971506  0.53225782  0.16898855     0.01600
C912        C  0.73813330  0.56077389  0.18163658     0.16600
C913        C  0.76900275  0.55713281  0.19101971     0.26000
C914        C  0.78197757  0.52497402  0.18785777    -0.40300
C915        C  0.76278590  0.49565211  0.17539756     0.33000
C916        C  0.69165371  0.54051035  0.15826085     0.01700
F917        F  0.72694122  0.59293399  0.18464970    -0.12600
F918        F  0.77449463  0.46392637  0.17230828    -0.13200
C919        C  0.64505632  0.50989195  0.15676570     0.16600
C920        C  0.61821930  0.52094231  0.14773548     0.26000
C921        C  0.63786390  0.56273100  0.14014483    -0.40300
C922        C  0.68482316  0.59270697  0.14144898     0.33000
C923        C  0.71143644  0.58144510  0.15031435     0.14700
F924        F  0.62542908  0.47022641  0.16447218    -0.12600
F925        F  0.70473616  0.63403667  0.13477847    -0.13200
F926        F  0.57311415  0.49115992  0.14651800    -0.15400
F927        F  0.75657695  0.61117467  0.15152573    -0.14000
F928        F  0.71406152  0.47141601  0.15380840    -0.14000
F929        F  0.78766239  0.58622784  0.20285985    -0.15400
C930        C  0.80914754  0.45107951  0.25905464     0.14700
C931        C  0.79903378  0.47889620  0.26804346     0.01600
C932        C  0.80904664  0.52155579  0.26257933     0.16600
C933        C  0.82505891  0.53445389  0.24785976     0.26000
C934        C  0.83231561  0.50534962  0.23858749    -0.40300
C935        C  0.82605234  0.46446350  0.24443150     0.33000
C936        C  0.77182324  0.46066651  0.28193262     0.01700
F937        F  0.80103905  0.54964127  0.27125133    -0.12600
F938        F  0.83299568  0.43601636  0.23555826    -0.13200
C939        C  0.78578360  0.44264986  0.29367433     0.16600
C940        C  0.75676822  0.42029538  0.30579391     0.26000
C941        C  0.71359598  0.41614319  0.30640323    -0.40300
C942        C  0.70068323  0.43610695  0.29497140     0.33000
C943        C  0.72930581  0.45769875  0.28279823     0.14700
F944        F  0.82704497  0.44581542  0.29321400    -0.12600
F945        F  0.65889096  0.43179397  0.29491959    -0.13200
F946        F  0.77054190  0.40203451  0.31677646    -0.15400
F947        F  0.71411477  0.47306678  0.27130573    -0.14000
F948        F  0.79924033  0.40944824  0.26393867    -0.14000
F949        F  0.83181255  0.57452361  0.24242116    -0.15400
C950        C  0.38190486  0.77372683  0.17310959     0.14700
C951        C  0.39442336  0.77982586  0.18848036     0.01600
C952        C  0.37323816  0.74338989  0.19851266     0.16600
C953        C  0.33889560  0.70153503  0.19338543     0.26000
C954        C  0.32534179  0.69547702  0.17813282    -0.40300
C955        C  0.34755350  0.73153416  0.16791730     0.33000
C956        C  0.42930133  0.82405043  0.19436354     0.01700
F957        F  0.38501103  0.74888778  0.21339680    -0.12600
F958        F  0.33537873  0.72610450  0.15308249    -0.13200
C959        C  0.41837114  0.85757651  0.19779998     0.16600
C960        C  0.45044670  0.89797798  0.20476784     0.26000
C961        C  0.49378930  0.90521479  0.20826471    -0.40300
C962        C  0.50450504  0.87146164  0.20478187     0.33000
C963        C  0.47243391  0.83114895  0.19790695     0.14700
F964        F  0.37651028  0.85084394  0.19454996    -0.12600
F965        F  0.54610779  0.87758819  0.20810462    -0.13200
F966        F  0.43970796  0.93048188  0.20770752    -0.15400
F967        F  0.48332177  0.79886764  0.19472753    -0.14000
F968        F  0.40270642  0.80861733  0.16323520    -0.14000
F969        F  0.31739100  0.66725114  0.20344756    -0.15400
C970        C  0.53454839  0.07371023  0.26206437     0.14700
C971        C  0.56504750  0.07935688  0.27379438     0.01600
C972        C  0.59129496  0.05834601  0.27254815     0.16600
C973        C  0.58824695  0.03347664  0.25955972     0.26000
C974        C  0.55848595  0.02872534  0.24773624    -0.40300
C975        C  0.53110967  0.04832185  0.24917235     0.33000
C976        C  0.57076863  0.10897292  0.28689575     0.01700
F977        F  0.62033519  0.06248853  0.28380915    -0.12600
F978        F  0.50309344  0.04514484  0.23768962    -0.13200
C979        C  0.53314452  0.10105016  0.29558391     0.16600
C980        C  0.53712180  0.13200419  0.30669033     0.26000
C981        C  0.57900680  0.17171511  0.30936875    -0.40300
C982        C  0.61739259  0.17803010  0.30131215     0.33000
C983        C  0.61320170  0.14704970  0.29013177     0.14700
F984        F  0.49214539  0.06364119  0.29306974    -0.12600
F985        F  0.65858824  0.21540766  0.30359069    -0.13200
F986        F  0.49954618  0.12340665  0.31457752    -0.15400
F987        F  0.65016823  0.15570189  0.28185921    -0.14000
F988        F  0.50985732  0.09482550  0.26273637    -0.14000
F989        F  0.61519458  0.01493733  0.25830751    -0.15400
C990        C  0.06897264  0.35942466  0.15209612     0.14700
C991        C  0.05679838  0.39052276  0.15756098     0.01600
C992        C  0.01082717  0.37741350  0.15878930     0.16600
C993        C  0.97748209  0.33403529  0.15431093     0.26000
C994        C  0.98972471  0.30327679  0.14848505    -0.40300
C995        C  0.03572260  0.31621792  0.14753337     0.33000
C996        C  0.09243640  0.43710531  0.16129292     0.01700
F997        F  0.99829210  0.40709597  0.16382311    -0.12600
F998        F  0.04843261  0.28675311  0.14241100    -0.13200
C999        C  0.12431658  0.46321792  0.15021867     0.16600
C1000       C  0.16051491  0.50567833  0.15387613     0.26000
C1001       C  0.16519919  0.52293273  0.16860425    -0.40300
C1002       C  0.13231509  0.49797421  0.17955096     0.33000
C1003       C  0.09603312  0.45510572  0.17591477     0.14700
F1004       F  0.12042363  0.44739031  0.13584861    -0.12600
F1005       F  0.13598673  0.51461304  0.19377474    -0.13200
F1006       F  0.19131716  0.53012964  0.14304566    -0.15400
F1007       F  0.06541651  0.43055655  0.18676989    -0.14000
F1008       F  0.11322122  0.37096822  0.15123497    -0.14000
F1009       F  0.93326870  0.32258882  0.15519003    -0.15400
C1010       C  0.68153984  0.06848605  0.17713363     0.14700
C1011       C  0.72417840  0.08514482  0.18389375     0.01600
C1012       C  0.72773922  0.07903869  0.19941027     0.16600
C1013       C  0.68876604  0.05632325  0.20818474     0.26000
C1014       C  0.64579623  0.03965221  0.20148933    -0.40300
C1015       C  0.64250260  0.04597103  0.18587717     0.33000
C1016       C  0.76516551  0.11111126  0.17490224     0.01700
F1017       F  0.76903365  0.09555990  0.20604344    -0.12600
F1018       F  0.60157507  0.03130041  0.17916780    -0.13200
C1019       C  0.78062578  0.15680633  0.17195945     0.16600
C1020       C  0.81972527  0.18203449  0.16347910     0.26000
C1021       C  0.84381378  0.16173061  0.15784333    -0.40300
C1022       C  0.82814811  0.11576845  0.16083071     0.33000
C1023       C  0.78893734  0.09058414  0.16934305     0.14700
F1024       F  0.75761783  0.17681746  0.17727467    -0.12600
F1025       F  0.85103241  0.09548589  0.15564296    -0.13200
F1026       F  0.83327823  0.22592802  0.16037669    -0.15400
F1027       F  0.77388662  0.04617575  0.17207236    -0.14000
F1028       F  0.67788054  0.07440471  0.16209570    -0.14000
F1029       F  0.69298589  0.04992035  0.22314096    -0.15400
C1030       C  0.88885852  0.05629493  0.07205427     0.14700
C1031       C  0.91661237  0.10312901  0.07015414     0.01600
C1032       C  0.94029529  0.12010380  0.05655787     0.16600
C1033       C  0.93605891  0.09040053  0.04490289     0.26000
C1034       C  0.90861799  0.04339333  0.04686555    -0.40300
C1035       C  0.88502255  0.02662899  0.06054484     0.33000
C1036       C  0.92066896  0.13372955  0.08256372     0.01700
F1037       F  0.96741726  0.16535342  0.05461051    -0.12600
F1038       F  0.85786706  0.98144981  0.06273363    -0.13200
C1039       C  0.96095636  0.15667810  0.09099477     0.16600
C1040       C  0.96237378  0.17995200  0.10421519     0.26000
C1041       C  0.92349514  0.18068033  0.10906654    -0.40300
C1042       C  0.88415054  0.16011054  0.09999964     0.33000
C1043       C  0.88265535  0.13644385  0.08693667     0.14700
F1044       F  0.99793114  0.15406693  0.08694572    -0.12600
F1045       F  0.84670215  0.16191207  0.10402121    -0.13200
F1046       F  0.00067474  0.19904881  0.11278392    -0.15400
F1047       F  0.84359085  0.11480483  0.07879528    -0.14000
F1048       F  0.86608308  0.03929791  0.08521214    -0.14000
F1049       F  0.96000140  0.10743225  0.03195895    -0.15400
C1050       C  0.27482681  0.47576410  0.16716919     0.14700
C1051       C  0.26438349  0.45551720  0.18152289     0.01600
C1052       C  0.24515954  0.47031490  0.19251939     0.16600
C1053       C  0.23862783  0.50666733  0.18946713     0.26000
C1054       C  0.25061353  0.52813713  0.17530483    -0.40300
C1055       C  0.26724631  0.51147173  0.16397582     0.33000
C1056       C  0.27653316  0.42119946  0.18545975     0.01700
F1057       F  0.23478410  0.45091065  0.20643602    -0.12600
F1058       F  0.27727694  0.53056837  0.15002658    -0.13200
C1059       C  0.32182926  0.43461463  0.18871246     0.16600
C1060       C  0.33353115  0.40258310  0.19311838     0.26000
C1061       C  0.30008167  0.35674125  0.19415875    -0.40300
C1062       C  0.25476336  0.34329607  0.19079812     0.33000
C1063       C  0.24299211  0.37548675  0.18657965     0.14700
F1064       F  0.35448272  0.47887541  0.18787495    -0.12600
F1065       F  0.22190208  0.29921171  0.19197394    -0.13200
F1066       F  0.37752747  0.41615166  0.19623970    -0.15400
F1067       F  0.19897651  0.36223470  0.18364396    -0.14000
F1068       F  0.29320945  0.46149177  0.15641146    -0.14000
F1069       F  0.22255492  0.52234829  0.20056004    -0.15400
C1070       C  0.36357813  0.30242660  0.26006278     0.14700
C1071       C  0.40673983  0.30692253  0.26086855     0.01600
C1072       C  0.42906296  0.30735139  0.24747990     0.16600
C1073       C  0.40846854  0.30318475  0.23344155     0.26000
C1074       C  0.36533259  0.29875979  0.23258675    -0.40300
C1075       C  0.34305818  0.29861774  0.24597957     0.33000
C1076       C  0.42850037  0.31002183  0.27560396     0.01700
F1077       F  0.47057590  0.31107367  0.24804852    -0.12600
F1078       F  0.30112687  0.29387861  0.24540630    -0.13200
C1079       C  0.41023050  0.27279068  0.28540315     0.16600
C1080       C  0.43422847  0.27324611  0.29831461     0.26000
C1081       C  0.47696111  0.31112653  0.30162871    -0.40300
C1082       C  0.49381529  0.34943768  0.29218920     0.33000
C1083       C  0.46978962  0.34872908  0.27927258     0.14700
F1084       F  0.37028365  0.23503002  0.28201999    -0.12600
F1085       F  0.53477263  0.38670761  0.29490302    -0.13200
F1086       F  0.41611795  0.23609276  0.30731896    -0.15400
F1087       F  0.48757724  0.38532999  0.27001810    -0.14000
F1088       F  0.34157048  0.30202387  0.27289859    -0.14000
F1089       F  0.43091702  0.30415042  0.22064620    -0.15400
C1090       C  0.27839137  0.84769446  0.14993542     0.14700
C1091       C  0.23833227  0.80618113  0.15193312     0.01600
C1092       C  0.19677024  0.80107179  0.14723268     0.16600
C1093       C  0.19526669  0.83675542  0.14022210     0.26000
C1094       C  0.23549369  0.87789851  0.13763440    -0.40300
C1095       C  0.27700057  0.88349350  0.14280919     0.33000
C1096       C  0.23995067  0.76663643  0.15752715     0.01700
F1097       F  0.15779027  0.76103869  0.14912749    -0.12600
F1098       F  0.31628067  0.92271645  0.14027371    -0.13200
C1099       C  0.24817962  0.76275306  0.17288746     0.16600
C1100       C  0.24809736  0.72400781  0.17804045     0.26000
C1101       C  0.24025219  0.68935980  0.16778400    -0.40300
C1102       C  0.23226297  0.69356295  0.15243274     0.33000
C1103       C  0.23199221  0.73189143  0.14734361     0.14700
F1104       F  0.25573490  0.79618807  0.18282887    -0.12600
F1105       F  0.22593892  0.66089200  0.14231042    -0.13200
F1106       F  0.25585957  0.72034720  0.19290957    -0.15400
F1107       F  0.22463193  0.73552819  0.13241592    -0.14000
F1108       F  0.31891631  0.85269275  0.15420320    -0.14000
F1109       F  0.15452457  0.83100593  0.13582306    -0.15400
C1110       C  0.27112116  0.13955637  0.17687931     0.14700
C1111       C  0.29358527  0.14886970  0.16287996     0.01600
C1112       C  0.32550220  0.19379372  0.15917001     0.12700
C1113       C  0.33390665  0.22897338  0.16917725     0.26000
C1114       C  0.31070560  0.21955717  0.18301000    -0.40300
C1115       C  0.27960083  0.17465471  0.18685824     0.33000
C1116       C  0.28278644  0.11142071  0.15219978     0.01700
F1117       F  0.34769072  0.20363774  0.14574141    -0.12600
F1118       F  0.25665617  0.16496882  0.20013825    -0.13200
C1119       C  0.23778760  0.08313961  0.14743192     0.16600
C1120       C  0.22615285  0.04452846  0.13882678     0.26000
C1121       C  0.25940878  0.03375928  0.13477806    -0.40300
C1122       C  0.30476261  0.06309525  0.13890232     0.33000
C1123       C  0.31645204  0.10181970  0.14753902     0.14700
F1124       F  0.20488983  0.09238757  0.15145898    -0.12600
F1125       F  0.33746885  0.05367087  0.13479745    -0.13200
F1126       F  0.18199864  0.01636001  0.13512909    -0.15400
F1127       F  0.36019323  0.12872062  0.15193960    -0.14000
F1128       F  0.24100178  0.09632465  0.18089393    -0.14000
F1129       F  0.36482796  0.27220369  0.16544316    -0.15400
C1130       C  0.07834672  0.89359391  0.04453864     0.14700
C1131       C  0.08078186  0.90594895  0.05980884     0.01600
C1132       C  0.05301962  0.92214405  0.06523514     0.16600
C1133       C  0.02315400  0.92620645  0.05554567     0.26000
C1134       C  0.02027283  0.91384617  0.04018184    -0.40300
C1135       C  0.04813693  0.89740663  0.03474174     0.33000
C1136       C  0.11437032  0.90571195  0.07014297     0.01700
F1137       F  0.05593468  0.93544767  0.07990402    -0.12600
F1138       F  0.04568543  0.88438902  0.02006860    -0.13200
C1139       C  0.16008584  0.93903467  0.06866164     0.16600
C1140       C  0.19031011  0.94735837  0.08055904     0.26000
C1141       C  0.17507431  0.92215703  0.09396820    -0.40300
C1142       C  0.12998252  0.88654274  0.09496792     0.33000
C1143       C  0.09978737  0.87841975  0.08310334     0.14700
F1144       F  0.17450302  0.96589135  0.05622274    -0.12600
F1145       F  0.11428131  0.86207910  0.10789235    -0.13200
F1146       F  0.23393158  0.98129058  0.07928551    -0.15400
F1147       F  0.05556656  0.84611767  0.08467302    -0.14000
F1148       F  0.10501814  0.87771247  0.03919304    -0.14000
F1149       F  0.99798741  0.94350289  0.06118264    -0.15400
loop_ 
_geom_bond_atom_site_label_1 
_geom_bond_atom_site_label_2 
_geom_bond_distance 
_geom_bond_site_symmetry_2 
_ccdc_geom_bond_type 
C1            C2   1.400       .  A
C1            C6   1.401       .  A
C1         C1094   1.473       .  S
C2            C3   1.396       .  A
C2            H7   1.086       .  S
C3            C4   1.402       .  A
C3         C1141   1.471       .  S
C4            C5   1.401       .  A
C4            H8   1.086   1_565  S
C5            C6   1.403       .  A
C5         C1121   1.473   1_565  S
C6            H9   1.083       .  S
C10          C11   1.401       .  A
C10          C15   1.401       .  A
C10        C1061   1.471       .  S
C11          C12   1.400       .  A
C11          H16   1.085       .  S
C12          C13   1.401       .  A
C12        C1114   1.471       .  S
C13          C14   1.402       .  A
C13          H17   1.084       .  S
C14          C15   1.401       .  A
C14        C1074   1.474       .  S
C15          H18   1.082       .  S
C19          C20   1.400       .  A
C19          C24   1.405       .  A
C19         C994   1.476       .  S
C20          C21   1.399       .  A
C20          H25   1.081       .  S
C21          C22   1.397       .  A
C21        C1021   1.473       .  S
C22          C23   1.401       .  A
C22          H26   1.087       .  S
C23          C24   1.403       .  A
C23        C1041   1.479       .  S
C24          H27   1.085       .  S
C28          C29   1.399       .  A
C28          C33   1.407       .  A
C28         C961   1.475       .  S
C29          C30   1.397   1_565  A
C29          H34   1.081       .  S
C30          C31   1.399       .  A
C30        C1014   1.474       .  S
C31          C32   1.400       .  A
C31          H35   1.087       .  S
C32          C33   1.406   1_545  A
C32         C974   1.474       .  S
C33          H36   1.085       .  S
C37          C38   1.403       .  A
C37          C42   1.403       .  A
C37         C894   1.474       .  S
C38          C39   1.396       .  A
C38          H43   1.085       .  S
C39          C40   1.399       .  A
C39         C934   1.467       .  S
C40          C41   1.399       .  A
C40          H44   1.081       .  S
C41          C42   1.401       .  A
C41         C914   1.471       .  S
C42          H45   1.085       .  S
C46          C47   1.404       .  A
C46          C51   1.401       .  A
C46         C861   1.476       .  S
C47          C48   1.403       .  A
C47          H52   1.083       .  S
C48          C49   1.401       .  A
C48         C881   1.481       .  S
C49          C50   1.401       .  A
C49          H53   1.086       .  S
C50          C51   1.402       .  A
C50         C921   1.478       .  S
C51          H54   1.084       .  S
C55          C56   1.405       .  A
C55          C60   1.405       .  A
C55        C1101   1.474       .  S
C56          C57   1.406       .  A
C56         C901   1.475       .  S
C57          C58   1.407       .  A
C57        C1001   1.478       .  S
C58          C59   1.410       .  A
C58        C1054   1.481       .  S
C59          C60   1.406       .  A
C59         C854   1.476       .  S
C60         C954   1.479       .  S
O61          C77   1.271       .  A
O61         Zn67   1.990       .  S
C62         C801   1.486       .  S
C62          O78   1.272       .  A
C62          O75   1.274       .  A
O63          C76   1.275       .  A
O63         Cd70   2.080       .  S
O64          C82   1.274       .  A
O64         Cd73   2.062       .  S
O65          C79   1.274       .  A
O65         Cd69   2.060       .  S
O66          C77   1.273       .  A
O66         Cd69   2.066       .  S
Zn67         O78   1.996       .  S
Zn67         O80   1.993       .  S
Zn67         O72   1.915       .  S
O68          C79   1.276       .  A
O68         Cd73   2.076       .  S
Cd69         O71   2.058       .  S
Cd69         O72   1.994       .  S
Cd70         O74   2.063       .  S
Cd70         O83   2.063       .  S
Cd70         O72   1.999       .  S
O71          C81   1.273       .  A
O72         Cd73   2.002       .  S
Cd73         O75   2.071       .  S
O74          C81   1.274       .  A
C76         C814   1.489       .  S
C76          O80   1.271       .  A
C77         C834   1.483       .  S
C79         C981   1.487       .  S
C81        C1081   1.481       .  S
C82         C941   1.476       .  S
C82          O83   1.275       .  A
C84          C85   1.401       .  A
C84          C89   1.403       .  A
C84         C734   1.474       .  S
C85          C86   1.401       .  A
C85          H90   1.083       .  S
C86          C87   1.400       .  A
C86         C754   1.474       .  S
C87          C88   1.404       .  A
C87          H91   1.084       .  S
C88          C89   1.404       .  A
C88         C774   1.488       .  S
C89          H92   1.082       .  S
C93          C94   1.407   1_565  A
C93          C98   1.408       .  A
C93         C714   1.491       .  S
C94          C95   1.400       .  A
C94          H99   1.080       .  S
C95          C96   1.399   1_545  A
C95         C841   1.479       .  S
C96          C97   1.399       .  A
C96         H100   1.085       .  S
C97          C98   1.403       .  A
C97         C761   1.482       .  S
C98         H101   1.081       .  S
C102        C103   1.403       .  A
C102        C107   1.398       .  A
C102        C654   1.472       .  S
C103        C104   1.404       .  A
C103        H108   1.085       .  S
C104        C105   1.404       .  A
C104        C701   1.481       .  S
C105        C106   1.399       .  A
C105        H109   1.085       .  S
C106        C107   1.397       .  A
C106        C674   1.471       .  S
C107        H110   1.083       .  S
C111        C112   1.402       .  A
C111        C116   1.394       .  A
C111        C634   1.467       .  S
C112        C113   1.408       .  A
C112        H117   1.083       .  S
C113        C114   1.406       .  A
C113        C821   1.485       .  S
C114        C115   1.401       .  A
C114        H118   1.086       .  S
C115        C116   1.397       .  A
C115        C681   1.470       .  S
C116        H119   1.084       .  S
C120        C121   1.400       .  A
C120        C125   1.401       .  A
C120        C574   1.473       .  S
C121        C122   1.402       .  A
C121        H126   1.083       .  S
C122        C123   1.402       .  A
C122        C594   1.479       .  S
C123        C124   1.404       .  A
C123        H127   1.084   1_655  S
C124        C125   1.401       .  A
C124        C614   1.477   1_655  S
C125        H128   1.085       .  S
C129        C130   1.397       .  A
C129        C134   1.400       .  A
C129        C561   1.467       .  S
C130        C131   1.400       .  A
C130        H135   1.084       .  S
C131        C132   1.403       .  A
C131        C601   1.471       .  S
C132        C133   1.403       .  A
C132        H136   1.085       .  S
C133        C134   1.401       .  A
C133        C794   1.480       .  S
C134        H137   1.085       .  S
C138        C139   1.403   1_565  A
C138        C143   1.408       .  A
C138        C741   1.479       .  S
C139        C140   1.409       .  A
C139        C554   1.480       .  S
C140        C141   1.412   1_545  A
C140        C661   1.480       .  S
C141        C142   1.414       .  A
C141        C721   1.490       .  S
C142        C143   1.408       .  A
C142        C581   1.483       .  S
C143        C641   1.478       .  S
C144        C145   1.405       .  A
C144        C149   1.403       .  A
C144        C494   1.483       .  S
C145        C146   1.405       .  A
C145        H150   1.083       .  S
C146        C147   1.406       .  A
C146        C534   1.490       .  S
C147        C148   1.402       .  A
C147        H151   1.083       .  S
C148        C149   1.402       .  A
C148        C521   1.482       .  S
C149        H152   1.084       .  S
C153        C154   1.402       .  A
C153        C158   1.402       .  A
C153        C454   1.470   1_565  S
C154        C155   1.401       .  A
C154        H159   1.084   1_565  S
C155        C156   1.402       .  A
C155        C474   1.472       .  S
C156        C157   1.400       .  A
C156        H160   1.085       .  S
C157        C158   1.400       .  A
C157        C514   1.472       .  S
C158        H161   1.083       .  S
C162        C163   1.400       .  A
C162        C167   1.398       .  A
C162        C394   1.470       .  S
C163        C164   1.400       .  A
C163        H168   1.085       .  S
C164        C165   1.405       .  A
C164        C434   1.478       .  S
C165        C166   1.405       .  A
C165        H169   1.086       .  S
C166        C167   1.401       .  A
C166        C414   1.479       .  S
C167        H170   1.081       .  S
C171        C172   1.402       .  A
C171        C176   1.403       .  A
C171        C354   1.478       .  S
C172        C173   1.396       .  A
C172        H177   1.085       .  S
C173        C174   1.400       .  A
C173        C374   1.469       .  S
C174        C175   1.402       .  A
C174        H178   1.085       .  S
C175        C176   1.404       .  A
C175        C421   1.477   1_655  S
C176        H179   1.081       .  S
C180        C181   1.406       .  A
C180        C185   1.404       .  A
C180        C294   1.483       .  S
C181        C182   1.405       .  A
C181        H186   1.084       .  S
C182        C183   1.402       .  A
C182        C334   1.478       .  S
C183        C184   1.399       .  A
C183        H187   1.087       .  S
C184        C185   1.401       .  A
C184        C321   1.474       .  S
C185        H188   1.082       .  S
C189        C190   1.406       .  A
C189        C194   1.408       .  A
C189        C261   1.494       .  S
C190        C191   1.403   1_655  A
C190        H195   1.082       .  S
C191        C192   1.403       .  A
C191        C314   1.486       .  S
C192        C193   1.404       .  A
C192        H196   1.080       .  S
C193        C194   1.404   1_455  A
C193        C274   1.484       .  S
C194        H197   1.076       .  S
C198        C199   1.409       .  A
C198        C203   1.412       .  A
C198        C361   1.475       .  S
C199        C200   1.404       .  A
C199        C501   1.479       .  S
C200        C201   1.407       .  A
C200        C301   1.482       .  S
C201        C202   1.411       .  A
C201        C401   1.473       .  S
C202        C203   1.408       .  A
C202        C461   1.484       .  S
C203        C254   1.489       .  S
O204        C220   1.269       .  A
O204       Zn210   1.983       .  S
C205       C1134   1.474   1_655  S
C205        O221   1.270       .  A
C205        O218   1.272       .  A
O206        C219   1.275       .  A
O206       Cd213   2.075   1_545  S
O207        C225   1.274   1_565  A
O207       Cd216   2.063       .  S
O208        C222   1.274       .  A
O208       Cd212   2.063   1_556  S
O209        C220   1.274       .  A
O209       Cd212   2.073       .  S
Zn210       O221   1.977       .  S
Zn210       O223   1.985       .  S
Zn210       O215   1.911       .  S
O211        C222   1.273       .  A
O211       Cd216   2.051       .  S
Cd212       O214   2.057   1_554  S
Cd212       O215   1.996       .  S
Cd213       O217   2.067   1_554  S
Cd213       O226   2.067   1_564  S
Cd213       O215   1.998       .  S
O214        C224   1.274       .  A
O215       Cd216   1.995   1_554  S
Cd216       O218   2.062   1_556  S
O217        C224   1.275       .  A
C219       C1034   1.472       .  S
C219        O223   1.270   1_545  A
C220        C874   1.485       .  S
C222        C381   1.482       .  S
C224        C481   1.482       .  S
C225        C341   1.482   1_655  S
C225        O226   1.275       .  A
O227        C243   1.269       .  A
O227       Zn233   1.970       .  S
C228        C694   1.477       .  S
C228        O244   1.269       .  A
C228        O241   1.274       .  A
O229        C242   1.275       .  A
O229       Cd236   2.087       .  S
O230        C248   1.274       .  A
O230       Cd239   2.057       .  S
O231        C245   1.275       .  A
O231       Cd235   2.074       .  S
O232        C243   1.274       .  A
O232       Cd235   2.083       .  S
Zn233       O244   1.978       .  S
Zn233       O246   1.974       .  S
Zn233       O238   1.901       .  S
O234        C245   1.273       .  A
O234       Cd239   2.054       .  S
Cd235       O237   2.065       .  S
Cd235       O238   2.007       .  S
Cd236       O240   2.062       .  S
Cd236       O249   2.075       .  S
Cd236       O238   2.004       .  S
O237        C247   1.275       .  A
O238       Cd239   1.992       .  S
Cd239       O241   2.073       .  S
O240        C247   1.276       .  A
C242        C621   1.477       .  S
C242        O246   1.269       .  A
C243        C781   1.477       .  S
C245        C541   1.473       .  S
C247        C441   1.479       .  S
C248        C281   1.486       .  S
C248        O249   1.275       .  A
C250        C251   1.411       .  A
C250        C255   1.399       .  A
C250        F268   1.357       .  S
C251        C252   1.408       .  A
C251        C256   1.491       .  S
C252        C253   1.394       .  A
C252        F257   1.358       .  S
C253        C254   1.404       .  A
C253        F269   1.357       .  S
C254        C255   1.404       .  A
C255        F258   1.356       .  S
C256        C259   1.407       .  A
C256        C263   1.408       .  A
C259        C260   1.398       .  A
C259        F264   1.358       .  S
C260        C261   1.412       .  A
C260        F266   1.357       .  S
C261        C262   1.411       .  A
C262        C263   1.396       .  A
C262        F265   1.358       .  S
C263        F267   1.358       .  S
C270        C271   1.401       .  A
C270        C275   1.398   1_455  A
C270        F288   1.358   1_455  S
C271        C272   1.403       .  A
C271        C276   1.472       .  S
C272        C273   1.398       .  A
C272        F277   1.358       .  S
C273        C274   1.409       .  A
C273        F289   1.358       .  S
C274        C275   1.410   1_455  A
C275        F278   1.358       .  S
C276        C279   1.401       .  A
C276        C283   1.400       .  A
C279        C280   1.400       .  A
C279        F284   1.358       .  S
C280        C281   1.413       .  A
C280        F286   1.358       .  S
C281        C282   1.412       .  A
C282        C283   1.395       .  A
C282        F285   1.358       .  S
C283        F287   1.358       .  S
C290        C291   1.402       .  A
C290        C295   1.397       .  A
C290        F308   1.358       .  S
C291        C292   1.404       .  A
C291        C296   1.474       .  S
C292        C293   1.400       .  A
C292        F297   1.358       .  S
C293        C294   1.408       .  A
C293        F309   1.358       .  S
C294        C295   1.409       .  A
C295        F298   1.358       .  S
C296        C299   1.402       .  A
C296        C303   1.405       .  A
C299        C300   1.395       .  A
C299        F304   1.358       .  S
C300        C301   1.404       .  A
C300        F306   1.358       .  S
C301        C302   1.404       .  A
C302        C303   1.401       .  A
C302        F305   1.357       .  S
C303        F307   1.357       .  S
C310        C311   1.403       .  A
C310        C315   1.397       .  A
C310        F328   1.358       .  S
C311        C312   1.404       .  A
C311        C316   1.477       .  S
C312        C313   1.397       .  A
C312        F317   1.358       .  S
C313        C314   1.410       .  A
C313        F329   1.358   1_455  S
C314        C315   1.410       .  A
C315        F318   1.358       .  S
C316        C319   1.406       .  A
C316        C323   1.405       .  A
C319        C320   1.398       .  A
C319        F324   1.358       .  S
C320        C321   1.405       .  A
C320        F326   1.358       .  S
C321        C322   1.404       .  A
C322        C323   1.397       .  A
C322        F325   1.358       .  S
C323        F327   1.358       .  S
C330        C331   1.406       .  A
C330        C335   1.398       .  A
C330        F348   1.358       .  S
C331        C332   1.407       .  A
C331        C336   1.481       .  S
C332        C333   1.397       .  A
C332        F337   1.358       .  S
C333        C334   1.405       .  A
C333        F349   1.358       .  S
C334        C335   1.406       .  A
C335        F338   1.358       .  S
C336        C339   1.405       .  A
C336        C343   1.405       .  A
C339        C340   1.397       .  A
C339        F344   1.358       .  S
C340        C341   1.410       .  A
C340        F346   1.358   1_455  S
C341        C342   1.409       .  A
C342        C343   1.398       .  A
C342        F345   1.358       .  S
C343        F347   1.358       .  S
C350        C351   1.403       .  A
C350        C355   1.396       .  A
C350        F368   1.358       .  S
C351        C352   1.402       .  A
C351        C356   1.470       .  S
C352        C353   1.395       .  A
C352        F357   1.358       .  S
C353        C354   1.409       .  A
C353        F369   1.358       .  S
C354        C355   1.407       .  A
C355        F358   1.358       .  S
C356        C359   1.403       .  A
C356        C363   1.405       .  A
C359        C360   1.390       .  A
C359        F364   1.359       .  S
C360        C361   1.403       .  A
C360        F366   1.358       .  S
C361        C362   1.403       .  A
C362        C363   1.399       .  A
C362        F365   1.357       .  S
C363        F367   1.357       .  S
C370        C371   1.403       .  A
C370        C375   1.394       .  A
C370        F388   1.358       .  S
C371        C372   1.404       .  A
C371        C376   1.468       .  S
C372        C373   1.397       .  A
C372        F377   1.358       .  S
C373        C374   1.404       .  A
C373        F389   1.358       .  S
C374        C375   1.404       .  A
C375        F378   1.358       .  S
C376        C379   1.401       .  A
C376        C383   1.400       .  A
C379        C380   1.398       .  A
C379        F384   1.358       .  S
C380        C381   1.412       .  A
C380        F386   1.358       .  S
C381        C382   1.412       .  A
C382        C383   1.392       .  A
C382        F385   1.358       .  S
C383        F387   1.358       .  S
C390        C391   1.400       .  A
C390        C395   1.394   1_545  A
C390        F408   1.358       .  S
C391        C392   1.402       .  A
C391        C396   1.462       .  S
C392        C393   1.395   1_545  A
C392        F397   1.357       .  S
C393        C394   1.405       .  A
C393        F409   1.358       .  S
C394        C395   1.406       .  A
C395        F398   1.358       .  S
C396        C399   1.403       .  A
C396        C403   1.401       .  A
C399        C400   1.398       .  A
C399        F404   1.357       .  S
C400        C401   1.404       .  A
C400        F406   1.357       .  S
C401        C402   1.402       .  A
C402        C403   1.389       .  A
C402        F405   1.358       .  S
C403        F407   1.358       .  S
C410        C411   1.401       .  A
C410        C415   1.397       .  A
C410        F428   1.358       .  S
C411        C412   1.401       .  A
C411        C416   1.468       .  S
C412        C413   1.396       .  A
C412        F417   1.358       .  S
C413        C414   1.408       .  A
C413        F429   1.358       .  S
C414        C415   1.409       .  A
C415        F418   1.358       .  S
C416        C419   1.402       .  A
C416        C423   1.401       .  A
C419        C420   1.396       .  A
C419        F424   1.358       .  S
C420        C421   1.407       .  A
C420        F426   1.358       .  S
C421        C422   1.407       .  A
C422        C423   1.397       .  A
C422        F425   1.358   1_455  S
C423        F427   1.358       .  S
C430        C431   1.404       .  A
C430        C435   1.398       .  A
C430        F448   1.358       .  S
C431        C432   1.407       .  A
C431        C436   1.477       .  S
C432        C433   1.395       .  A
C432        F437   1.358       .  S
C433        C434   1.404       .  A
C433        F449   1.358       .  S
C434        C435   1.409       .  A
C435        F438   1.358       .  S
C436        C439   1.403       .  A
C436        C443   1.404       .  A
C439        C440   1.396       .  A
C439        F444   1.358       .  S
C440        C441   1.410       .  A
C440        F446   1.358       .  S
C441        C442   1.408       .  A
C442        C443   1.397       .  A
C442        F445   1.358       .  S
C443        F447   1.358       .  S
C450        C451   1.404       .  A
C450        C455   1.395       .  A
C450        F468   1.357       .  S
C451        C452   1.404       .  A
C451        C456   1.472       .  S
C452        C453   1.399       .  A
C452        F457   1.358       .  S
C453        C454   1.405       .  A
C453        F469   1.358       .  S
C454        C455   1.403       .  A
C455        F458   1.358   1_545  S
C456        C459   1.403       .  A
C456        C463   1.404       .  A
C459        C460   1.396       .  A
C459        F464   1.358       .  S
C460        C461   1.405       .  A
C460        F466   1.358       .  S
C461        C462   1.405       .  A
C462        C463   1.396       .  A
C462        F465   1.356       .  S
C463        F467   1.358       .  S
C470        C471   1.404       .  A
C470        C475   1.393       .  A
C470        F488   1.358       .  S
C471        C472   1.404       .  A
C471        C476   1.473       .  S
C472        C473   1.400       .  A
C472        F477   1.358       .  S
C473        C474   1.406       .  A
C473        F489   1.358       .  S
C474        C475   1.403       .  A
C475        F478   1.358       .  S
C476        C479   1.402       .  A
C476        C483   1.401       .  A
C479        C480   1.400       .  A
C479        F484   1.358   1_565  S
C480        C481   1.412       .  A
C480        F486   1.358   1_565  S
C481        C482   1.411       .  A
C482        C483   1.393       .  A
C482        F485   1.358       .  S
C483        F487   1.358       .  S
C490        C491   1.402       .  A
C490        C495   1.397       .  A
C490        F508   1.358       .  S
C491        C492   1.403       .  A
C491        C496   1.474       .  S
C492        C493   1.398       .  A
C492        F497   1.358       .  S
C493        C494   1.408       .  A
C493        F509   1.358       .  S
C494        C495   1.410       .  A
C495        F498   1.358       .  S
C496        C499   1.403       .  A
C496        C503   1.406       .  A
C499        C500   1.393       .  A
C499        F504   1.358       .  S
C500        C501   1.403       .  A
C500        F506   1.358       .  S
C501        C502   1.403       .  A
C502        C503   1.400       .  A
C502        F505   1.357       .  S
C503        F507   1.357       .  S
C510        C511   1.403       .  A
C510        C515   1.397       .  A
C510        F528   1.358       .  S
C511        C512   1.404       .  A
C511        C516   1.472       .  S
C512        C513   1.397       .  A
C512        F517   1.358       .  S
C513        C514   1.404       .  A
C513        F529   1.358       .  S
C514        C515   1.405       .  A
C515        F518   1.358       .  S
C516        C519   1.403       .  A
C516        C523   1.402       .  A
C519        C520   1.397       .  A
C519        F524   1.358       .  S
C520        C521   1.408       .  A
C520        F526   1.358       .  S
C521        C522   1.409       .  A
C522        C523   1.397       .  A
C522        F525   1.358       .  S
C523        F527   1.358       .  S
C530        C531   1.406       .  A
C530        C535   1.396       .  A
C530        F548   1.358       .  S
C531        C532   1.407       .  A
C531        C536   1.486       .  S
C532        C533   1.397       .  A
C532        F537   1.358       .  S
C533        C534   1.410       .  A
C533        F549   1.358       .  S
C534        C535   1.411       .  A
C535        F538   1.357       .  S
C536        C539   1.408       .  A
C536        C543   1.409       .  A
C539        C540   1.393       .  A
C539        F544   1.358       .  S
C540        C541   1.405       .  A
C540        F546   1.359       .  S
C541        C542   1.405       .  A
C542        C543   1.400       .  A
C542        F545   1.358       .  S
C543        F547   1.358       .  S
C550        C551   1.405       .  A
C550        C555   1.399       .  A
C550        F568   1.358       .  S
C551        C552   1.402       .  A
C551        C556   1.470       .  S
C552        C553   1.390       .  A
C552        F557   1.358       .  S
C553        C554   1.403       .  A
C553        F569   1.358       .  S
C554        C555   1.404       .  A
C555        F558   1.357       .  S
C556        C559   1.406       .  A
C556        C563   1.402       .  A
C559        C560   1.397       .  A
C559        F564   1.358       .  S
C560        C561   1.402       .  A
C560        F566   1.358       .  S
C561        C562   1.405       .  A
C562        C563   1.394       .  A
C562        F565   1.358       .  S
C563        F567   1.358       .  S
C570        C571   1.405       .  A
C570        C575   1.396       .  A
C570        F588   1.358       .  S
C571        C572   1.404       .  A
C571        C576   1.473       .  S
C572        C573   1.395       .  A
C572        F577   1.358       .  S
C573        C574   1.406       .  A
C573        F589   1.358       .  S
C574        C575   1.404       .  A
C575        F578   1.358       .  S
C576        C579   1.403       .  A
C576        C583   1.404       .  A
C579        C580   1.392       .  A
C579        F584   1.358       .  S
C580        C581   1.405       .  A
C580        F586   1.359       .  S
C581        C582   1.407       .  A
C582        C583   1.397       .  A
C582        F585   1.356       .  S
C583        F587   1.358       .  S
C590        C591   1.400       .  A
C590        C595   1.396       .  A
C590        F608   1.358       .  S
C591        C592   1.402       .  A
C591        C596   1.467       .  S
C592        C593   1.396       .  A
C592        F597   1.358       .  S
C593        C594   1.408       .  A
C593        F609   1.358       .  S
C594        C595   1.409       .  A
C595        F598   1.358   1_655  S
C596        C599   1.403       .  A
C596        C603   1.402       .  A
C599        C600   1.398       .  A
C599        F604   1.358   1_655  S
C600        C601   1.405       .  A
C600        F606   1.358   1_655  S
C601        C602   1.405       .  A
C602        C603   1.393       .  A
C602        F605   1.358       .  S
C603        F607   1.358       .  S
C610        C611   1.405       .  A
C610        C615   1.397       .  A
C610        F628   1.358       .  S
C611        C612   1.404       .  A
C611        C616   1.475       .  S
C612        C613   1.396       .  A
C612        F617   1.358       .  S
C613        C614   1.406       .  A
C613        F629   1.358   1_455  S
C614        C615   1.407       .  A
C615        F618   1.358       .  S
C616        C619   1.405       .  A
C616        C623   1.402       .  A
C619        C620   1.403       .  A
C619        F624   1.357       .  S
C620        C621   1.408       .  A
C620        F626   1.357       .  S
C621        C622   1.409       .  A
C622        C623   1.390       .  A
C622        F625   1.359       .  S
C623        F627   1.359       .  S
C630        C631   1.406       .  A
C630        C635   1.396       .  A
C630        F648   1.358       .  S
C631        C632   1.403       .  A
C631        C636   1.472       .  S
C632        C633   1.396       .  A
C632        F637   1.358       .  S
C633        C634   1.404       .  A
C633        F649   1.358       .  S
C634        C635   1.402       .  A
C635        F638   1.358       .  S
C636        C639   1.408       .  A
C636        C643   1.401       .  A
C639        C640   1.402       .  A
C639        F644   1.357       .  S
C640        C641   1.404       .  A
C640        F646   1.357       .  S
C641        C642   1.404       .  A
C642        C643   1.388       .  A
C642        F645   1.358       .  S
C643        F647   1.358       .  S
C650        C651   1.405       .  A
C650        C655   1.393       .  A
C650        F668   1.358       .  S
C651        C652   1.403       .  A
C651        C656   1.471       .  S
C652        C653   1.397       .  A
C652        F657   1.358       .  S
C653        C654   1.408       .  A
C653        F669   1.358       .  S
C654        C655   1.403       .  A
C655        F658   1.358       .  S
C656        C659   1.402       .  A
C656        C663   1.407       .  A
C659        C660   1.388   1_455  A
C659        F664   1.358       .  S
C660        C661   1.404       .  A
C660        F666   1.358       .  S
C661        C662   1.406   1_655  A
C662        C663   1.400       .  A
C662        F665   1.357       .  S
C663        F667   1.358       .  S
C670        C671   1.403       .  A
C670        C675   1.394       .  A
C670        F688   1.358       .  S
C671        C672   1.403       .  A
C671        C676   1.468       .  S
C672        C673   1.396       .  A
C672        F677   1.358       .  S
C673        C674   1.406       .  A
C673        F689   1.358       .  S
C674        C675   1.405       .  A
C675        F678   1.358       .  S
C676        C679   1.404       .  A
C676        C683   1.402       .  A
C679        C680   1.398       .  A
C679        F684   1.358       .  S
C680        C681   1.404       .  A
C680        F686   1.358       .  S
C681        C682   1.406       .  A
C682        C683   1.392       .  A
C682        F685   1.358       .  S
C683        F687   1.358       .  S
C690        C691   1.404       .  A
C690        C695   1.392       .  A
C690        F708   1.358       .  S
C691        C692   1.406       .  A
C691        C696   1.478       .  S
C692        C693   1.400       .  A
C692        F697   1.358       .  S
C693        C694   1.408       .  A
C693        F709   1.358       .  S
C694        C695   1.409       .  A
C695        F698   1.359       .  S
C696        C699   1.405       .  A
C696        C703   1.405       .  A
C699        C700   1.396       .  A
C699        F704   1.358       .  S
C700        C701   1.408       .  A
C700        F706   1.358       .  S
C701        C702   1.408       .  A
C702        C703   1.396       .  A
C702        F705   1.358       .  S
C703        F707   1.358       .  S
C710        C711   1.405       .  A
C710        C715   1.400       .  A
C710        F728   1.357       .  S
C711        C712   1.407   1_565  A
C711        C716   1.485       .  S
C712        C713   1.391       .  A
C712        F717   1.359       .  S
C713        C714   1.409   1_545  A
C713        F729   1.358       .  S
C714        C715   1.413       .  A
C715        F718   1.357       .  S
C716        C719   1.410   1_565  A
C716        C723   1.405       .  A
C719        C720   1.403   1_545  A
C719        F724   1.357       .  S
C720        C721   1.408   1_455  A
C720        F726   1.357   1_565  S
C721        C722   1.405       .  A
C722        C723   1.387   1_655  A
C722        F725   1.357       .  S
C723        F727   1.359       .  S
C730        C731   1.403       .  A
C730        C735   1.398       .  A
C730        F748   1.358       .  S
C731        C732   1.403       .  A
C731        C736   1.470       .  S
C732        C733   1.395       .  A
C732        F737   1.358   1_565  S
C733        C734   1.405       .  A
C733        F749   1.358       .  S
C734        C735   1.406       .  A
C735        F738   1.358       .  S
C736        C739   1.404       .  A
C736        C743   1.403       .  A
C739        C740   1.400       .  A
C739        F744   1.357       .  S
C740        C741   1.405       .  A
C740        F746   1.357       .  S
C741        C742   1.403       .  A
C742        C743   1.390       .  A
C742        F745   1.358       .  S
C743        F747   1.358       .  S
C750        C751   1.403       .  A
C750        C755   1.401       .  A
C750        F768   1.357       .  S
C751        C752   1.401       .  A
C751        C756   1.467       .  S
C752        C753   1.391       .  A
C752        F757   1.358       .  S
C753        C754   1.406       .  A
C753        F769   1.358       .  S
C754        C755   1.407       .  A
C755        F758   1.358       .  S
C756        C759   1.402       .  A
C756        C763   1.399       .  A
C759        C760   1.401       .  A
C759        F764   1.357       .  S
C760        C761   1.410       .  A
C760        F766   1.358       .  S
C761        C762   1.410       .  A
C762        C763   1.390       .  A
C762        F765   1.358   1_565  S
C763        F767   1.359       .  S
C770        C771   1.399       .  A
C770        C775   1.396       .  A
C770        F788   1.358       .  S
C771        C772   1.400       .  A
C771        C776   1.467       .  S
C772        C773   1.396       .  A
C772        F777   1.358       .  S
C773        C774   1.412       .  A
C773        F789   1.358       .  S
C774        C775   1.412       .  A
C775        F778   1.357       .  S
C776        C779   1.402       .  A
C776        C783   1.399       .  A
C779        C780   1.402       .  A
C779        F784   1.357       .  S
C780        C781   1.409       .  A
C780        F786   1.357       .  S
C781        C782   1.410       .  A
C782        C783   1.390       .  A
C782        F785   1.359       .  S
C783        F787   1.359       .  S
C790        C791   1.404       .  A
C790        C795   1.394       .  A
C790        F808   1.358       .  S
C791        C792   1.405       .  A
C791        C796   1.477       .  S
C792        C793   1.399       .  A
C792        F797   1.358       .  S
C793        C794   1.407       .  A
C793        F809   1.358       .  S
C794        C795   1.408       .  A
C795        F798   1.358       .  S
C796        C799   1.403       .  A
C796        C803   1.403       .  A
C799        C800   1.393       .  A
C799        F804   1.359       .  S
C800        C801   1.412       .  A
C800        F806   1.358       .  S
C801        C802   1.413       .  A
C802        C803   1.400       .  A
C802        F805   1.358       .  S
C803        F807   1.358       .  S
C810        C811   1.402       .  A
C810        C815   1.402       .  A
C810        F828   1.358       .  S
C811        C812   1.401       .  A
C811        C816   1.476       .  S
C812        C813   1.394       .  A
C812        F817   1.359       .  S
C813        C814   1.414       .  A
C813        F829   1.358       .  S
C814        C815   1.413       .  A
C815        F818   1.357       .  S
C816        C819   1.403       .  A
C816        C823   1.403       .  A
C819        C820   1.400       .  A
C819        F824   1.358       .  S
C820        C821   1.410       .  A
C820        F826   1.358       .  S
C821        C822   1.409       .  A
C822        C823   1.396       .  A
C822        F825   1.358       .  S
C823        F827   1.358       .  S
C830        C831   1.403       .  A
C830        C835   1.391       .  A
C830        F848   1.359       .  S
C831        C832   1.404       .  A
C831        C836   1.477       .  S
C832        C833   1.400       .  A
C832        F837   1.358       .  S
C833        C834   1.412       .  A
C833        F849   1.358       .  S
C834        C835   1.411       .  A
C835        F838   1.358       .  S
C836        C839   1.405       .  A
C836        C843   1.404       .  A
C839        C840   1.394       .  A
C839        F844   1.358       .  S
C840        C841   1.407       .  A
C840        F846   1.358       .  S
C841        C842   1.408       .  A
C842        C843   1.396       .  A
C842        F845   1.358   1_545  S
C843        F847   1.358       .  S
C850        C851   1.402       .  A
C850        C855   1.389       .  A
C850        F868   1.358       .  S
C851        C852   1.406       .  A
C851        C856   1.471       .  S
C852        C853   1.400       .  A
C852        F857   1.357       .  S
C853        C854   1.404       .  A
C853        F869   1.357       .  S
C854        C855   1.403       .  A
C855        F858   1.358       .  S
C856        C859   1.403       .  A
C856        C863   1.404       .  A
C859        C860   1.394       .  A
C859        F864   1.358       .  S
C860        C861   1.406       .  A
C860        F866   1.358       .  S
C861        C862   1.406       .  A
C862        C863   1.399       .  A
C862        F865   1.358       .  S
C863        F867   1.358       .  S
C870        C871   1.402       .  A
C870        C875   1.399       .  A
C870        F888   1.358       .  S
C871        C872   1.401       .  A
C871        C876   1.474       .  S
C872        C873   1.393       .  A
C872        F877   1.359       .  S
C873        C874   1.414       .  A
C873        F889   1.358       .  S
C874        C875   1.412       .  A
C875        F878   1.357       .  S
C876        C879   1.403       .  A
C876        C883   1.403       .  A
C879        C880   1.397       .  A
C879        F884   1.358       .  S
C880        C881   1.409       .  A
C880        F886   1.358       .  S
C881        C882   1.409       .  A
C882        C883   1.395       .  A
C882        F885   1.358       .  S
C883        F887   1.358       .  S
C890        C891   1.400       .  A
C890        C895   1.397   1_455  A
C890        F908   1.358       .  S
C891        C892   1.402   1_455  A
C891        C896   1.465       .  S
C892        C893   1.394       .  A
C892        F897   1.358   1_655  S
C893        C894   1.406       .  A
C893        F909   1.358       .  S
C894        C895   1.408       .  A
C895        F898   1.358       .  S
C896        C899   1.401       .  A
C896        C903   1.403       .  A
C899        C900   1.391       .  A
C899        F904   1.358       .  S
C900        C901   1.403       .  A
C900        F906   1.358       .  S
C901        C902   1.404       .  A
C902        C903   1.397       .  A
C902        F905   1.357       .  S
C903        F907   1.357       .  S
C910        C911   1.403       .  A
C910        C915   1.399       .  A
C910        F928   1.358       .  S
C911        C912   1.403       .  A
C911        C916   1.470       .  S
C912        C913   1.392       .  A
C912        F917   1.358       .  S
C913        C914   1.403       .  A
C913        F929   1.358       .  S
C914        C915   1.406       .  A
C915        F918   1.358       .  S
C916        C919   1.404       .  A
C916        C923   1.401       .  A
C919        C920   1.400       .  A
C919        F924   1.358       .  S
C920        C921   1.408       .  A
C920        F926   1.358       .  S
C921        C922   1.408       .  A
C922        C923   1.390       .  A
C922        F925   1.358       .  S
C923        F927   1.358       .  S
C930        C931   1.407       .  A
C930        C935   1.397       .  A
C930        F948   1.358       .  S
C931        C932   1.406       .  A
C931        C936   1.477       .  S
C932        C933   1.395       .  A
C932        F937   1.358       .  S
C933        C934   1.402       .  A
C933        F949   1.358       .  S
C934        C935   1.402       .  A
C935        F938   1.358       .  S
C936        C939   1.405       .  A
C936        C943   1.405       .  A
C939        C940   1.400       .  A
C939        F944   1.358       .  S
C940        C941   1.409       .  A
C940        F946   1.358       .  S
C941        C942   1.407       .  A
C942        C943   1.393       .  A
C942        F945   1.358       .  S
C943        F947   1.358       .  S
C950        C951   1.405       .  A
C950        C955   1.401       .  A
C950        F968   1.358       .  S
C951        C952   1.400       .  A
C951        C956   1.469       .  S
C952        C953   1.392       .  A
C952        F957   1.358       .  S
C953        C954   1.403       .  A
C953        F969   1.358       .  S
C954        C955   1.406       .  A
C955        F958   1.357       .  S
C956        C959   1.404       .  A
C956        C963   1.401       .  A
C959        C960   1.400       .  A
C959        F964   1.358       .  S
C960        C961   1.405       .  A
C960        F966   1.358       .  S
C961        C962   1.407       .  A
C962        C963   1.395       .  A
C962        F965   1.358       .  S
C963        F967   1.358       .  S
C970        C971   1.409       .  A
C970        C975   1.399       .  A
C970        F988   1.358       .  S
C971        C972   1.405       .  A
C971        C976   1.482       .  S
C972        C973   1.398       .  A
C972        F977   1.358       .  S
C973        C974   1.405       .  A
C973        F989   1.358       .  S
C974        C975   1.402       .  A
C975        F978   1.358       .  S
C976        C979   1.403       .  A
C976        C983   1.406       .  A
C979        C980   1.397       .  A
C979        F984   1.358       .  S
C980        C981   1.411       .  A
C980        F986   1.358       .  S
C981        C982   1.411       .  A
C982        C983   1.400       .  A
C982        F985   1.358       .  S
C983        F987   1.358       .  S
C990        C991   1.406       .  A
C990        C995   1.394       .  A
C990       F1008   1.358       .  S
C991        C992   1.404       .  A
C991        C996   1.475       .  S
C992        C993   1.397   1_455  A
C992        F997   1.358   1_455  S
C993        C994   1.408       .  A
C993       F1009   1.358       .  S
C994        C995   1.404   1_655  A
C995        F998   1.358       .  S
C996        C999   1.404       .  A
C996       C1003   1.407       .  A
C999       C1000   1.390       .  A
C999       F1004   1.358       .  S
C1000      C1001   1.402       .  A
C1000      F1006   1.358       .  S
C1001      C1002   1.403       .  A
C1002      C1003   1.399       .  A
C1002      F1005   1.357       .  S
C1003      F1007   1.358       .  S
C1010      C1011   1.400       .  A
C1010      C1015   1.394       .  A
C1010      F1028   1.358       .  S
C1011      C1012   1.400       .  A
C1011      C1016   1.462       .  S
C1012      C1013   1.394       .  A
C1012      F1017   1.358       .  S
C1013      C1014   1.407       .  A
C1013      F1029   1.358       .  S
C1014      C1015   1.408       .  A
C1015      F1018   1.358       .  S
C1016      C1019   1.400       .  A
C1016      C1023   1.401       .  A
C1019      C1020   1.392       .  A
C1019      F1024   1.358       .  S
C1020      C1021   1.406       .  A
C1020      F1026   1.358       .  S
C1021      C1022   1.408       .  A
C1022      C1023   1.396       .  A
C1022      F1025   1.358       .  S
C1023      F1027   1.358       .  S
C1030      C1031   1.403       .  A
C1030      C1035   1.393       .  A
C1030      F1048   1.359       .  S
C1031      C1032   1.403       .  A
C1031      C1036   1.471       .  S
C1032      C1033   1.400       .  A
C1032      F1037   1.357       .  S
C1033      C1034   1.407       .  A
C1033      F1049   1.358       .  S
C1034      C1035   1.407       .  A
C1035      F1038   1.359   1_545  S
C1036      C1039   1.404       .  A
C1036      C1043   1.402       .  A
C1039      C1040   1.398       .  A
C1039      F1044   1.358       .  S
C1040      C1041   1.407       .  A
C1040      F1046   1.358   1_655  S
C1041      C1042   1.408       .  A
C1042      C1043   1.394       .  A
C1042      F1045   1.358       .  S
C1043      F1047   1.358       .  S
C1050      C1051   1.403       .  A
C1050      C1055   1.397       .  A
C1050      F1068   1.357       .  S
C1051      C1052   1.401       .  A
C1051      C1056   1.468       .  S
C1052      C1053   1.394       .  A
C1052      F1057   1.358       .  S
C1053      C1054   1.405       .  A
C1053      F1069   1.358       .  S
C1054      C1055   1.405       .  A
C1055      F1058   1.357       .  S
C1056      C1059   1.403       .  A
C1056      C1063   1.402       .  A
C1059      C1060   1.395       .  A
C1059      F1064   1.358       .  S
C1060      C1061   1.404       .  A
C1060      F1066   1.358       .  S
C1061      C1062   1.405       .  A
C1062      C1063   1.398       .  A
C1062      F1065   1.358       .  S
C1063      F1067   1.358       .  S
C1070      C1071   1.404       .  A
C1070      C1075   1.399       .  A
C1070      F1088   1.358       .  S
C1071      C1072   1.404       .  A
C1071      C1076   1.473       .  S
C1072      C1073   1.394       .  A
C1072      F1077   1.358       .  S
C1073      C1074   1.404       .  A
C1073      F1089   1.358       .  S
C1074      C1075   1.406       .  A
C1075      F1078   1.358       .  S
C1076      C1079   1.402       .  A
C1076      C1083   1.402       .  A
C1079      C1080   1.397       .  A
C1079      F1084   1.358       .  S
C1080      C1081   1.411       .  A
C1080      F1086   1.358       .  S
C1081      C1082   1.411       .  A
C1082      C1083   1.396       .  A
C1082      F1085   1.358       .  S
C1083      F1087   1.358       .  S
C1090      C1091   1.403       .  A
C1090      C1095   1.398       .  A
C1090      F1108   1.358       .  S
C1091      C1092   1.401       .  A
C1091      C1096   1.466       .  S
C1092      C1093   1.392       .  A
C1092      F1097   1.358       .  S
C1093      C1094   1.407       .  A
C1093      F1109   1.358       .  S
C1094      C1095   1.406       .  A
C1095      F1098   1.358       .  S
C1096      C1099   1.404       .  A
C1096      C1103   1.401       .  A
C1099      C1100   1.399       .  A
C1099      F1104   1.357       .  S
C1100      C1101   1.404       .  A
C1100      F1106   1.357       .  S
C1101      C1102   1.403       .  A
C1102      C1103   1.390       .  A
C1102      F1105   1.359       .  S
C1103      F1107   1.358       .  S
C1110      C1111   1.407       .  A
C1110      C1115   1.395       .  A
C1110      F1128   1.358       .  S
C1111      C1112   1.406       .  A
C1111      C1116   1.478       .  S
C1112      C1113   1.399       .  A
C1112      F1117   1.358       .  S
C1113      C1114   1.405       .  A
C1113      F1129   1.358       .  S
C1114      C1115   1.402       .  A
C1115      F1118   1.358       .  S
C1116      C1119   1.405       .  A
C1116      C1123   1.406       .  A
C1119      C1120   1.395       .  A
C1119      F1124   1.358       .  S
C1120      C1121   1.404       .  A
C1120      F1126   1.358       .  S
C1121      C1122   1.404       .  A
C1122      C1123   1.399       .  A
C1122      F1125   1.358       .  S
C1123      F1127   1.358       .  S
C1130      C1131   1.402       .  A
C1130      C1135   1.399       .  A
C1130      F1148   1.358       .  S
C1131      C1132   1.400       .  A
C1131      C1136   1.466       .  S
C1132      C1133   1.388       .  A
C1132      F1137   1.359       .  S
C1133      C1134   1.409       .  A
C1133      F1149   1.358   1_455  S
C1134      C1135   1.410       .  A
C1135      F1138   1.358       .  S
C1136      C1139   1.403       .  A
C1136      C1143   1.403       .  A
C1139      C1140   1.395       .  A
C1139      F1144   1.358       .  S
C1140      C1141   1.404       .  A
C1140      F1146   1.357       .  S
C1141      C1142   1.407       .  A
C1142      C1143   1.394       .  A
C1142      F1145   1.358       .  S
C1143      F1147   1.358       .  S
