geometry optimzed in LAMMPS
_audit_creation_date              2020-11-30 
_audit_creation_method            'lammps2cif' 
_symmetry_space_group_name_H-M    'P1' 
_symmetry_Int_Tables_number       1 
_symmetry_cell_setting            triclinic 
loop_ 
_symmetry_equiv_pos_as_xyz 
  x,y,z 
_cell_length_a                    47.55828773 
_cell_length_b                    30.787570214841956 
_cell_length_c                    28.512999246100065 
_cell_angle_alpha                 89.76720122942324 
_cell_angle_beta                  90.37901957036782 
_cell_angle_gamma                 90.20038691331048 
loop_ 
_atom_site_label 
_atom_site_type_symbol 
_atom_site_fract_x 
_atom_site_fract_y 
_atom_site_fract_z 
_atom_site_charge 
C1          C  0.11011380  0.81582928  0.37162721     0.03200
C2          C  0.09888740  0.80538949  0.41566472    -0.13000
C3          C  0.07951688  0.83335453  0.43665756     0.00700
C4          C  0.07156279  0.87168881  0.41355906    -0.11500
C5          C  0.08254407  0.88189413  0.36947973     0.03100
C6          C  0.10204200  0.85417555  0.34875547    -0.10900
H7          H  0.10465817  0.77522460  0.43291966     0.08700
H8          H  0.05588137  0.89265310  0.42901775     0.06300
H9          H  0.10989648  0.86138483  0.31398408     0.06100
C10         C  0.34960657  0.81847420  0.07207570     0.03200
C11         C  0.36025632  0.80973942  0.02742784    -0.13000
C12         C  0.38050390  0.83725593  0.00771204     0.00700
C13         C  0.39039443  0.87320470  0.03313080    -0.11500
C14         C  0.37946918  0.88270993  0.07758700     0.03100
C15         C  0.35875015  0.85541572  0.09655355    -0.10900
H16         H  0.35313678  0.78130115  0.00842928     0.08700
H17         H  0.40660764  0.89379612  0.01825828     0.06300
H18         H  0.35017188  0.86231864  0.13086391     0.06100
O19         O  0.46150334  0.81817777  0.83227277    -0.78500
C20         C  0.02527283  0.73234498  0.77626395     0.82600
O21         O  0.02013747  0.90583088  0.73082121    -0.79600
O22         O  0.01483104  0.77919497  0.63016695    -0.81100
O23         O  0.42215179  0.76534538  0.68408486    -0.80900
O24         O  0.42208652  0.81431898  0.78990483    -0.79500
Zn25       Zn  0.49351775  0.81783494  0.78671787     1.55700
O26         O  0.45968417  0.72463695  0.67026376    -0.80900
Cd27       Cd  0.43736693  0.81751207  0.72191545     1.59700
Cd28       Cd  0.49347428  0.86964291  0.68851798     1.59600
O29         O  0.42146354  0.87331385  0.69067777    -0.80900
O30         O  0.47945889  0.81727736  0.72266678    -1.91400
Cd31       Cd  0.49285990  0.76373584  0.69026934     1.59900
O32         O  0.46008952  0.90923007  0.66863647    -0.80800
O33         O  0.01845494  0.72733049  0.73342759    -0.79500
C34         C  0.02622647  0.90273610  0.77428223     0.83000
C35         C  0.43480093  0.81626410  0.82936939     0.82700
O36         O  0.01712960  0.76473783  0.80021895    -0.78400
C37         C  0.43330712  0.73104091  0.66779311     0.83500
O38         O  0.01704306  0.87138812  0.79922979    -0.78500
C39         C  0.43340377  0.90599358  0.67171308     0.83600
C40         C  0.02172299  0.81524266  0.61137520     0.84000
O41         O  0.01533761  0.85179703  0.62914545    -0.81000
C42         C  0.09479685  0.60713085  0.87097247     0.03200
C43         C  0.10346794  0.61673659  0.91686284    -0.13000
C44         C  0.12305795  0.59010898  0.93967741     0.00700
C45         C  0.13357771  0.55343015  0.91679509    -0.11500
C46         C  0.12505815  0.54374919  0.87085416     0.03100
C47         C  0.10549715  0.57056741  0.84806605    -0.10900
H48         H  0.09602429  0.64590135  0.93386582     0.08700
H49         H  0.14941878  0.53356608  0.93394013     0.06300
H50         H  0.09949981  0.56404549  0.81203648     0.06100
C51         C  0.35830465  0.61212681  0.57187008     0.03200
C52         C  0.34843237  0.57489452  0.59510448    -0.13000
C53         C  0.32800250  0.54856948  0.57412219     0.00700
C54         C  0.31817480  0.55832838  0.52902747    -0.11500
C55         C  0.32846645  0.59464137  0.50483142     0.03100
C56         C  0.34837272  0.62182392  0.52646499    -0.10900
H57         H  0.35572087  0.56753304  0.63043431     0.08700
H58         H  0.30206697  0.53814788  0.51313356     0.06300
H59         H  0.35582486  0.65067299  0.50833675     0.06100
O60         O  0.24623267  0.61320463  0.32991682    -0.78500
C61         C  0.18220719  0.69762609  0.27495320     0.82600
O62         O  0.18976693  0.52241933  0.23109105    -0.79600
O63         O  0.18994972  0.65212253  0.12989201    -0.81100
O64         O  0.28428632  0.66406195  0.18065387    -0.80900
O65         O  0.28528168  0.61577194  0.28720539    -0.79500
Zn66       Zn  0.21393496  0.61276953  0.28456222     1.55700
O67         O  0.24730008  0.70609050  0.16670515    -0.80900
Cd68       Cd  0.26924797  0.61268427  0.21965808     1.59700
Cd69       Cd  0.21308691  0.56156999  0.18696662     1.59600
O70         O  0.28459655  0.55665198  0.18969102    -0.80900
O71         O  0.22733125  0.61378107  0.22060597    -1.91400
Cd72       Cd  0.21392510  0.66783330  0.18836104     1.59900
O73         O  0.24592940  0.52425833  0.16232458    -0.80800
O74         O  0.18942344  0.70440524  0.23264411    -0.79500
C75         C  0.18351243  0.52650509  0.27417971     0.83000
C76         C  0.27289068  0.61453931  0.32668345     0.82700
O77         O  0.19004548  0.66434600  0.29799562    -0.78400
C78         C  0.27357960  0.69880561  0.16414566     0.83500
O79         O  0.19106785  0.55929124  0.29818160    -0.78500
C80         C  0.27254456  0.52581981  0.16768221     0.83600
C81         C  0.18169972  0.61598416  0.11289226     0.84000
O82         O  0.18826045  0.57952640  0.13102796    -0.81000
C83         C  0.10105400  0.31688780  0.36705027     0.03200
C84         C  0.11153169  0.35377508  0.34385821    -0.13000
C85         C  0.12948872  0.38272749  0.36743484     0.00700
C86         C  0.13667448  0.37474410  0.41444878    -0.11500
C87         C  0.12699469  0.33735463  0.43741104     0.03100
C88         C  0.10896475  0.30858054  0.41377523    -0.10900
H89         H  0.10612351  0.35948536  0.30736879     0.08700
H90         H  0.15094906  0.39663663  0.43253085     0.06300
H91         H  0.10160217  0.27943060  0.43130042     0.06100
C92         C  0.36180902  0.32220523  0.07504852     0.03200
C93         C  0.35178329  0.35809897  0.10001284    -0.13000
C94         C  0.33239906  0.38649266  0.07908750     0.00700
C95         C  0.32316725  0.37914246  0.03307403    -0.11500
C96         C  0.33287988  0.34333250  0.00790969     0.03100
C97         C  0.35232611  0.31492750  0.02888228    -0.10900
H98         H  0.35842607  0.36321928  0.13599839     0.08700
H99         H  0.30761276  0.40050545  0.01738644     0.06300
H100        H  0.35946947  0.28668695  0.00985965     0.06100
O101        O  0.19341154  0.26383096  0.80496578    -0.78500
C102        C  0.27489269  0.32233175  0.83074700     0.82600
O103        O  0.18877864  0.40803092  0.73573147    -0.79600
O104        O  0.28297630  0.38054283  0.69319358    -0.81100
O105        O  0.24961159  0.22924062  0.66974976    -0.80900
O106        O  0.19299371  0.22452393  0.73932869    -0.79500
Zn107      Zn  0.21491186  0.31894093  0.79007815     1.55700
O108        O  0.28589673  0.27263162  0.68373467    -0.80900
Cd109      Cd  0.21505029  0.26415494  0.69305860     1.59700
Cd110      Cd  0.21198565  0.36969336  0.69153401     1.59600
O111        O  0.18964458  0.27942122  0.63475957    -0.80900
O112        O  0.22772762  0.31854002  0.72551533    -1.91400
Cd113      Cd  0.26977156  0.32276805  0.72364698     1.59900
O114        O  0.18732457  0.35175561  0.63568965    -0.80800
O115        O  0.28685993  0.32041751  0.79092485    -0.79500
C116        C  0.18218913  0.40351683  0.77866088     0.83000
C117        C  0.18645581  0.22982127  0.78223669     0.82700
O118        O  0.24818357  0.32295784  0.83425851    -0.78400
C119        C  0.27580658  0.23762682  0.66673801     0.83500
O120        O  0.18994812  0.37081183  0.80297046    -0.78500
C121        C  0.18111476  0.31540640  0.61726379     0.83600
C122        C  0.26993716  0.40929581  0.66939024     0.84000
O123        O  0.24338684  0.40789301  0.66406332    -0.81000
C124        C  0.11742128  0.10183015  0.87649824     0.03200
C125        C  0.10759693  0.10974814  0.92207852    -0.13000
C126        C  0.08777476  0.08178077  0.94254710     0.00700
C127        C  0.07822503  0.04536417  0.91787484    -0.11500
C128        C  0.08786116  0.03708499  0.87255916     0.03100
C129        C  0.10762146  0.06519065  0.85200586    -0.10900
H130        H  0.11438165  0.13863515  0.94068634     0.08700
H131        H  0.06215607  0.02464710  0.93306563     0.06300
H132        H  0.11425366  0.05977566  0.81624810     0.06100
C133        C  0.35122904  0.11683965  0.57404986     0.03200
C134        C  0.35970461  0.07988643  0.59945551    -0.13000
C135        C  0.37978354  0.05146165  0.58098193     0.00700
C136        C  0.39085606  0.05989677  0.53635113    -0.11500
C137        C  0.38186656  0.09589980  0.51012677     0.03100
C138        C  0.36215342  0.12456193  0.52913068    -0.10900
H139        H  0.35111224  0.07380860  0.63401781     0.08700
H140        H  0.40659726  0.03841616  0.52199309     0.06300
H141        H  0.35569767  0.15302894  0.50944033     0.06100
O142        O  0.02035496  0.16172648  0.29796397    -0.78500
C143        C  0.43763242  0.11071322  0.33115011     0.82600
O144        O  0.01889814  0.01925077  0.23107429    -0.79600
O145        O  0.42213137  0.05927756  0.18960234    -0.81100
O146        O  0.46250736  0.19807819  0.15870706    -0.80900
O147        O  0.02003691  0.20042503  0.23138964    -0.79500
Zn148      Zn  0.49616402  0.10879603  0.28623978     1.55700
O149        O  0.42506939  0.16787933  0.19150001    -0.80900
Cd150      Cd  0.49585730  0.16219371  0.18678300     1.59700
Cd151      Cd  0.49404835  0.05739430  0.18905762     1.59600
O152        O  0.02126673  0.14367848  0.13139263    -0.80900
O153        O  0.48162915  0.11048202  0.22242269    -1.91400
Cd154      Cd  0.43956881  0.11249794  0.22401248     1.59900
O155        O  0.01791822  0.07144800  0.13129553    -0.80800
O156        O  0.42466670  0.11337958  0.29204895    -0.79500
C157        C  0.02641112  0.02234520  0.27375772     0.83000
C158        C  0.02783378  0.19472998  0.27386908     0.82700
O159        O  0.46435998  0.10813948  0.33294978    -0.78400
C160        C  0.43600600  0.19687534  0.16541373     0.83500
O161        O  0.01935444  0.05475883  0.29866346    -0.78500
C162        C  0.02719768  0.10676561  0.11401563     0.83600
C163        C  0.43331225  0.02633981  0.17030883     0.84000
O164        O  0.45982932  0.02121812  0.16807371    -0.81000
C165        C  0.38236561  0.08365261  0.42350806    -0.01800
C166        C  0.39409982  0.10379705  0.46331023     0.07900
C167        C  0.41874385  0.12878867  0.45914233    -0.01900
C168        C  0.43219098  0.13272710  0.41550907    -0.01900
C169        C  0.42150311  0.11042797  0.37577311     0.08000
C170        C  0.39601110  0.08663837  0.37984136    -0.02100
Br171      Br  0.38023117  0.05549595  0.32707919    -0.00700
Br172      Br  0.34787481  0.05087288  0.42959964    -0.00800
Br173      Br  0.46466427  0.17037372  0.41064316    -0.00700
Br174      Br  0.43446944  0.15664226  0.51396419    -0.00700
C175        C  0.08460018  0.07421217  0.02964791    -0.01800
C176        C  0.07441301  0.09254743  0.98758684     0.07900
C177        C  0.04961236  0.11748489  0.98769417    -0.01900
C178        C  0.03488971  0.12384188  0.02965481    -0.01900
C179        C  0.04459419  0.10447177  0.07154096     0.08000
C180        C  0.06959236  0.07983736  0.07157884    -0.02100
Br181      Br  0.08318345  0.05353122  0.12893966    -0.00700
Br182      Br  0.11855646  0.04011731  0.02913683    -0.00800
Br183      Br  0.00002823  0.15591258  0.02882061    -0.00700
Br184      Br  0.03464128  0.14042161  0.92972566    -0.00700
C185        C  0.34278858  0.17904325  0.62781999    -0.01800
C186        C  0.33203382  0.14852944  0.59589288     0.07900
C187        C  0.30305776  0.14701928  0.58642541    -0.01900
C188        C  0.28459190  0.17576876  0.60916787    -0.01900
C189        C  0.29509081  0.20622263  0.64267942     0.08000
C190        C  0.32456224  0.20677934  0.65226602    -0.02100
Br191      Br  0.34101830  0.24251631  0.70109671    -0.00700
Br192      Br  0.38300993  0.18336632  0.63698027    -0.00800
Br193      Br  0.24518609  0.17216240  0.59240641    -0.00700
Br194      Br  0.28889243  0.10513632  0.54170544    -0.00700
C195        C  0.18052275  0.15578393  0.81835183    -0.01800
C196        C  0.16917931  0.19654061  0.80598118     0.07900
C197        C  0.14099821  0.20594464  0.81646977    -0.01900
C198        C  0.12413999  0.17490045  0.83924280    -0.01900
C199        C  0.13548032  0.13431911  0.85246190     0.08000
C200        C  0.16371905  0.12473971  0.84173377    -0.02100
Br201      Br  0.17949681  0.06952892  0.86006348    -0.00700
Br202      Br  0.21925329  0.14312311  0.80440365    -0.00800
Br203      Br  0.08506619  0.18756975  0.85009937    -0.00700
Br204      Br  0.12516563  0.26106904  0.79789311    -0.00700
C205        C  0.29786511  0.30492077  0.95720255    -0.01800
C206        C  0.32056042  0.33415981  0.96117363     0.07900
C207        C  0.32963244  0.35752664  0.92148567    -0.01900
C208        C  0.31524899  0.35313674  0.87831442    -0.01900
C209        C  0.29211863  0.32421144  0.87440291     0.08000
C210        C  0.28420914  0.29901778  0.91378584    -0.02100
Br211      Br  0.25515114  0.25519942  0.90846768    -0.00700
Br212      Br  0.28418669  0.27501769  0.01212674    -0.00800
Br213      Br  0.32613070  0.38953835  0.82612949    -0.00700
Br214      Br  0.36131571  0.39658267  0.92706926    -0.00700
C215        C  0.37036803  0.25000081  0.11256228    -0.01800
C216        C  0.38081272  0.29068704  0.09839960     0.07900
C217        C  0.40913349  0.30142753  0.10705858    -0.01900
C218        C  0.42703028  0.27166068  0.13016736    -0.01900
C219        C  0.41710672  0.22944111  0.14214692     0.08000
C220        C  0.38851702  0.21875788  0.13220297    -0.02100
Br221      Br  0.37342722  0.16091707  0.14209387    -0.00700
Br222      Br  0.33058196  0.23792790  0.10733783    -0.00800
Br223      Br  0.46442258  0.29101970  0.14728045    -0.00700
Br224      Br  0.42333197  0.35725174  0.08680422    -0.00700
C225        C  0.17578135  0.29567701  0.53254510    -0.01800
C226        C  0.16478113  0.31594213  0.57277867     0.07900
C227        C  0.14006412  0.34119069  0.56866419    -0.01900
C228        C  0.12697148  0.34684468  0.52456673    -0.01900
C229        C  0.13821707  0.32687228  0.48458026     0.08000
C230        C  0.16227193  0.30058428  0.48880544    -0.02100
Br231      Br  0.17772572  0.27340637  0.43381113    -0.00700
Br232      Br  0.21130334  0.26570986  0.53562812    -0.00800
Br233      Br  0.09410756  0.38305122  0.51826413    -0.00700
Br234      Br  0.12421873  0.36867863  0.62316723    -0.00700
C235        C  0.05295253  0.28925019  0.34764195    -0.01800
C236        C  0.08228853  0.28633206  0.34201313     0.07900
C237        C  0.09366773  0.25422106  0.31265883    -0.03900
C238        C  0.07571777  0.22473311  0.28947587    -0.01900
C239        C  0.04643037  0.22710045  0.29597394     0.08000
C240        C  0.03504248  0.25951269  0.32480559    -0.02100
Br241      Br  0.99487529  0.26324141  0.33252765    -0.00700
Br242      Br  0.03741726  0.33437379  0.38629413    -0.00800
Br243      Br  0.09112238  0.18061182  0.24929820    -0.00700
Br244      Br  0.13385208  0.25024152  0.30502123    -0.00700
C245        C  0.12655397  0.45506538  0.32631998    -0.01800
C246        C  0.14276869  0.41952796  0.34227738     0.07900
C247        C  0.17218474  0.41985171  0.33602710    -0.01900
C248        C  0.18534909  0.45601459  0.31562697    -0.01900
C249        C  0.16911762  0.49050061  0.29796657     0.08000
C250        C  0.13972852  0.49026260  0.30341247    -0.02100
Br251      Br  0.11787232  0.53867132  0.28060782    -0.00700
Br252      Br  0.08662267  0.45641947  0.33761132    -0.00800
Br253      Br  0.22586782  0.45971616  0.31444329    -0.00700
Br254      Br  0.19459913  0.37014537  0.35360009    -0.00700
C255        C  0.31304911  0.49951825  0.11919330    -0.01800
C256        C  0.28976143  0.49031413  0.14822974     0.07900
C257        C  0.28243022  0.44667624  0.15778471    -0.01900
C258        C  0.29728909  0.41264724  0.13674400    -0.01900
C259        C  0.31961906  0.42196010  0.10616204     0.08000
C260        C  0.32790885  0.46528048  0.09820327    -0.02100
Br261      Br  0.35943861  0.47733353  0.05785169    -0.00700
Br262      Br  0.32363897  0.55878648  0.10537390    -0.00800
Br263      Br  0.28634740  0.35309292  0.14835099    -0.00700
Br264      Br  0.25234846  0.43297330  0.20045025    -0.00700
C265        C  0.28862402  0.52158113  0.62280437    -0.01800
C266        C  0.31444926  0.51349477  0.60096755     0.07900
C267        C  0.32639695  0.47186177  0.60272134    -0.01900
C268        C  0.31209051  0.43766297  0.62535873    -0.01900
C269        C  0.28582933  0.44539563  0.64706660     0.08000
C270        C  0.27432693  0.48784174  0.64587019    -0.02100
Br271      Br  0.23919903  0.50126834  0.67614266    -0.00700
Br272      Br  0.27276585  0.57934005  0.62065019    -0.00800
Br273      Br  0.32782964  0.37993001  0.62271096    -0.00700
Br274      Br  0.36201620  0.46178891  0.57260945    -0.00700
C275        C  0.32322630  0.57491697  0.42055455    -0.01800
C276        C  0.31738510  0.60390574  0.45733511     0.07900
C277        C  0.29839976  0.63837548  0.45001007    -0.01900
C278        C  0.28487956  0.64323723  0.40626997    -0.01900
C279        C  0.28972080  0.61296353  0.37021831     0.08000
C280        C  0.30901340  0.57886513  0.37740182    -0.02100
Br281      Br  0.31388409  0.53480590  0.33009481    -0.00700
Br282      Br  0.35033637  0.52905545  0.42981880    -0.00800
Br283      Br  0.25955913  0.69124392  0.39587640    -0.00700
Br284      Br  0.28933123  0.67703490  0.50082049    -0.00700
C285        C  0.18120836  0.47818092  0.81055579    -0.01800
C286        C  0.16690995  0.43899517  0.80154418     0.07900
C287        C  0.13836520  0.43459887  0.81363909    -0.01900
C288        C  0.12454848  0.46874774  0.83674231    -0.01900
C289        C  0.13887172  0.50810799  0.84531602     0.08000
C290        C  0.16691206  0.51320523  0.83056588    -0.02100
Br291      Br  0.18543490  0.56876055  0.83536740    -0.00700
Br292      Br  0.22088192  0.48316212  0.79764330    -0.00800
Br293      Br  0.08627697  0.46153309  0.85738477    -0.00700
Br294      Br  0.11807145  0.38263314  0.79702763    -0.00700
C295        C  0.17684874  0.62942927  0.02729431    -0.01800
C296        C  0.16470173  0.61575533  0.06974684     0.07900
C297        C  0.13727556  0.59824869  0.07005757    -0.01900
C298        C  0.12277104  0.59169731  0.02747190    -0.01900
C299        C  0.13561474  0.60326370  0.98484736     0.08000
C300        C  0.16199626  0.62416589  0.98504814    -0.02100
Br301      Br  0.17787276  0.64542934  0.92730664    -0.00700
Br302      Br  0.21489457  0.65137173  0.02625759    -0.00800
Br303      Br  0.08575616  0.56600193  0.02722896    -0.00700
Br304      Br  0.11987934  0.58294501  0.12884262    -0.00700
C305        C  0.38776318  0.69003942  0.66234761    -0.01800
C306        C  0.41499107  0.69826674  0.64466251     0.07900
C307        C  0.42387052  0.67654202  0.60356377    -0.01900
C308        C  0.40543993  0.64790726  0.58015129    -0.01900
C309        C  0.37781046  0.64195500  0.59645414     0.08000
C310        C  0.36895611  0.66342281  0.63733192    -0.02100
Br311      Br  0.33048491  0.65828669  0.65808459    -0.00700
Br312      Br  0.37642982  0.71236901  0.72267091    -0.00800
Br313      Br  0.41823511  0.61599770  0.52613161    -0.00700
Br314      Br  0.46075820  0.68637964  0.57738852    -0.00700
C315        C  0.07237764  0.70143859  0.79442265    -0.01800
C316        C  0.04296684  0.69939091  0.79898770     0.07900
C317        C  0.03042792  0.66592818  0.82547968    -0.01900
C318        C  0.04739036  0.63538989  0.84895377    -0.01900
C319        C  0.07683407  0.63803032  0.84526117     0.08000
C320        C  0.08933883  0.67076267  0.81762888    -0.02100
Br321      Br  0.12973646  0.67384751  0.81229556    -0.00700
Br322      Br  0.08929721  0.74639495  0.75651953    -0.00800
Br323      Br  0.03048411  0.58999579  0.88622676    -0.00700
Br324      Br  0.99002521  0.66148395  0.82851695    -0.00700
C325        C  0.41736377  0.98298233  0.67320047    -0.01800
C326        C  0.41598265  0.94160693  0.65256020     0.07900
C327        C  0.39939829  0.93524756  0.61204159    -0.01900
C328        C  0.38615348  0.97093123  0.59017862    -0.01900
C329        C  0.38997963  0.01326824  0.60816821     0.08000
C330        C  0.40506411  0.01897592  0.65058039    -0.02100
Br331      Br  0.41073431  0.07610342  0.67657624    -0.00700
Br332      Br  0.43501153  0.98966549  0.73377336    -0.00800
Br333      Br  0.36255154  0.96173671  0.53573676    -0.00700
Br334      Br  0.39556150  0.87789789  0.58569858    -0.00700
C335        C  0.06510542  0.92576039  0.82942825    -0.01800
C336        C  0.04374231  0.93699989  0.79678444     0.07900
C337        C  0.03826793  0.98141871  0.78753729    -0.01900
C338        C  0.05326683  0.01393369  0.81162750    -0.01900
C339        C  0.07407107  0.00256190  0.84471795     0.08000
C340        C  0.07998416  0.95851110  0.85362053    -0.02100
Br341      Br  0.10829246  0.94326951  0.89956201    -0.00700
Br342      Br  0.07508175  0.86568324  0.83989563    -0.00800
Br343      Br  0.04394892  0.07440953  0.80172273    -0.00700
Br344      Br  0.00913215  0.99883056  0.74408444    -0.00700
C345        C  0.41510005  0.95093260  0.17197159    -0.01800
C346        C  0.41537345  0.99198959  0.15039051     0.07900
C347        C  0.40120186  0.99838296  0.10749176    -0.01900
C348        C  0.38794998  0.96305707  0.08508660    -0.01900
C349        C  0.39018641  0.92077701  0.10430295     0.08000
C350        C  0.40350968  0.91507394  0.14840376    -0.02100
Br351      Br  0.40830450  0.85826902  0.17568169    -0.00700
Br352      Br  0.43011701  0.94441577  0.23462816    -0.00800
Br353      Br  0.36629240  0.97298580  0.02863546    -0.00700
Br354      Br  0.40104861  0.05510897  0.07858015    -0.00700
C355        C  0.39642404  0.84814892  0.87827414    -0.01800
C356        C  0.41837607  0.81770082  0.87326923     0.07900
C357        C  0.42593322  0.79089977  0.91170056    -0.01900
C358        C  0.41277824  0.79622444  0.95534948    -0.01900
C359        C  0.39197893  0.82816401  0.96077279     0.08000
C360        C  0.38309119  0.85294107  0.92185301    -0.02100
Br361      Br  0.35247126  0.89336555  0.92847280    -0.00700
Br362      Br  0.38591228  0.88602806  0.82692220    -0.00800
Br363      Br  0.42366450  0.76051697  0.00822271    -0.00700
Br364      Br  0.45402066  0.74631085  0.90476552    -0.00700
C365        C  0.30171387  0.78560932  0.08021483    -0.01800
C366        C  0.33000109  0.78772944  0.09459594     0.07900
C367        C  0.33967153  0.76115593  0.13142447    -0.01900
C368        C  0.32077466  0.73497465  0.15645285    -0.01900
C369        C  0.29244095  0.73108473  0.14120290     0.08000
C370        C  0.28304877  0.75666898  0.10257685    -0.02100
Br371      Br  0.24519073  0.75197709  0.07809911    -0.00700
Br372      Br  0.28878201  0.82224276  0.02932929    -0.00800
Br373      Br  0.33403784  0.70770004  0.21375177    -0.00700
Br374      Br  0.37936191  0.75784280  0.14523768    -0.00700
C375        C  0.03448742  0.94282333  0.28710730    -0.01800
C376        C  0.04272326  0.98641795  0.29524164     0.07900
C377        C  0.06595595  0.99512781  0.32504442    -0.01900
C378        C  0.07963631  0.96075518  0.34853339    -0.01900
C379        C  0.07023193  0.91782363  0.34217843     0.08000
C380        C  0.04807267  0.90880530  0.31085214    -0.02100
Br381      Br  0.03565353  0.84952115  0.30177429    -0.00700
Br382      Br  0.00385389  0.92853184  0.24512994    -0.00800
Br383      Br  0.11135333  0.97199914  0.38926868    -0.00700
Br384      Br  0.08016107  0.05360579  0.33188947    -0.00700
C385        C  0.02310678  0.80641410  0.52470052    -0.01800
C386        C  0.03736771  0.81483212  0.56712870     0.07900
C387        C  0.06631221  0.82460456  0.56698624    -0.01900
C388        C  0.08063000  0.82866213  0.52416202    -0.01900
C389        C  0.06606608  0.82210689  0.48159351     0.08000
C390        C  0.03759221  0.80923394  0.48200011    -0.02100
Br391      Br  0.01849530  0.79560211  0.42394123    -0.00700
Br392      Br  0.48333070  0.79388507  0.52492599    -0.00800
Br393      Br  0.11979444  0.84510955  0.52359116    -0.00700
Br394      Br  0.08611294  0.83286008  0.62554867    -0.00700
C395        C  0.17556803  0.76412954  0.32265776    -0.01800
C396        C  0.16385304  0.72876880  0.29819003     0.07900
C397        C  0.13462595  0.72171432  0.29800205    -0.01900
C398        C  0.11701887  0.74993128  0.32272585    -0.01900
C399        C  0.12871166  0.78527425  0.34742529     0.08000
C400        C  0.15795335  0.79257479  0.34713776    -0.02100
Br401      Br  0.17374823  0.84127473  0.38068083    -0.00700
Br402      Br  0.21572043  0.77313045  0.32287427    -0.00800
Br403      Br  0.07688322  0.74055720  0.32227093    -0.00700
Br404      Br  0.11888220  0.67337798  0.26366780    -0.00700
C405        C  0.61011378  0.81582924  0.37162744     0.03200
C406        C  0.59888739  0.80538946  0.41566498    -0.13000
C407        C  0.57951688  0.83335452  0.43665779     0.00700
C408        C  0.57156280  0.87168885  0.41355932    -0.11500
C409        C  0.58254407  0.88189411  0.36947994     0.03100
C410        C  0.60204200  0.85417551  0.34875572    -0.10900
H411        H  0.60465816  0.77522458  0.43291990     0.08700
H412        H  0.55588144  0.89265315  0.42901801     0.06300
H413        H  0.60989645  0.86138474  0.31398432     0.06100
C414        C  0.84960659  0.81847422  0.07207557     0.03200
C415        C  0.86025633  0.80973950  0.02742773    -0.13000
C416        C  0.88050393  0.83725603  0.00771195     0.00700
C417        C  0.89039445  0.87320473  0.03313080    -0.11500
C418        C  0.87946921  0.88270997  0.07758692     0.03100
C419        C  0.85875014  0.85541576  0.09655353    -0.10900
H420        H  0.85313680  0.78130117  0.00842913     0.08700
H421        H  0.90660777  0.89379617  0.01825828     0.06300
H422        H  0.85017193  0.86231859  0.13086366     0.06100
O423        O  0.96150339  0.81817778  0.83227260    -0.78500
C424        C  0.52527276  0.73234486  0.77626400     0.82600
O425        O  0.52013739  0.90583087  0.73082125    -0.79600
O426        O  0.51483105  0.77919496  0.63016703    -0.81100
O427        O  0.92215187  0.76534533  0.68408486    -0.80900
O428        O  0.92208653  0.81431896  0.78990480    -0.79500
Zn429      Zn  0.99351776  0.81783495  0.78671767     1.55700
O430        O  0.95968426  0.72463692  0.67026377    -0.80900
Cd431      Cd  0.93736690  0.81751205  0.72191543     1.59700
Cd432      Cd  0.99347434  0.86964291  0.68851798     1.59600
O433        O  0.92146352  0.87331377  0.69067767    -0.80900
O434        O  0.97945886  0.81727737  0.72266667    -1.91400
Cd435      Cd  0.99285996  0.76373589  0.69026932     1.59900
O436        O  0.96008953  0.90922999  0.66863654    -0.80800
O437        O  0.51845483  0.72733030  0.73342766    -0.79500
C438        C  0.52622645  0.90273607  0.77428225     0.83000
C439        C  0.93480099  0.81626411  0.82936932     0.82700
O440        O  0.51712957  0.76473777  0.80021895    -0.78400
C441        C  0.93330720  0.73104087  0.66779313     0.83500
O442        O  0.51704304  0.87138812  0.79922986    -0.78500
C443        C  0.93340378  0.90599350  0.67171306     0.83600
C444        C  0.52172300  0.81524266  0.61137529     0.84000
O445        O  0.51533762  0.85179703  0.62914553    -0.81000
C446        C  0.59479676  0.60713083  0.87097264     0.03200
C447        C  0.60346792  0.61673658  0.91686298    -0.13000
C448        C  0.62305797  0.59010900  0.93967747     0.00700
C449        C  0.63357768  0.55343013  0.91679514    -0.11500
C450        C  0.62505806  0.54374921  0.87085421     0.03100
C451        C  0.60549706  0.57056743  0.84806616    -0.10900
H452        H  0.59602429  0.64590132  0.93386601     0.08700
H453        H  0.64941869  0.53356603  0.93394008     0.06300
H454        H  0.59949971  0.56404556  0.81203654     0.06100
C455        C  0.85830466  0.61212665  0.57187014     0.03200
C456        C  0.84843236  0.57489443  0.59510459    -0.13000
C457        C  0.82800245  0.54856941  0.57412229     0.00700
C458        C  0.81817480  0.55832826  0.52902757    -0.11500
C459        C  0.82846643  0.59464119  0.50483147     0.03100
C460        C  0.84837273  0.62182378  0.52646504    -0.10900
H461        H  0.85572083  0.56753297  0.63043435     0.08700
H462        H  0.80206687  0.53814761  0.51313367     0.06300
H463        H  0.85582481  0.65067281  0.50833685     0.06100
O464        O  0.74623262  0.61320462  0.32991700    -0.78500
C465        C  0.68220720  0.69762605  0.27495342     0.82600
O466        O  0.68976689  0.52241934  0.23109103    -0.79600
O467        O  0.68994981  0.65212254  0.12989213    -0.81100
O468        O  0.78428633  0.66406197  0.18065386    -0.80900
O469        O  0.78528158  0.61577193  0.28720545    -0.79500
Zn470      Zn  0.71393498  0.61276951  0.28456228     1.55700
O471        O  0.74730016  0.70609063  0.16670526    -0.80900
Cd472      Cd  0.76924793  0.61268432  0.21965809     1.59700
Cd473      Cd  0.71308697  0.56157001  0.18696663     1.59600
O474        O  0.78459662  0.55665216  0.18969102    -0.80900
O475        O  0.72733125  0.61378106  0.22060603    -1.91400
Cd476      Cd  0.71392519  0.66783337  0.18836124     1.59900
O477        O  0.74592949  0.52425849  0.16232458    -0.80800
O478        O  0.68942354  0.70440532  0.23264439    -0.79500
C479        C  0.68351237  0.52650511  0.27417969     0.83000
C480        C  0.77289063  0.61453932  0.32668356     0.82700
O481        O  0.69004544  0.66434588  0.29799576    -0.78400
C482        C  0.77357966  0.69880567  0.16414567     0.83500
O483        O  0.69106781  0.55929124  0.29818159    -0.78500
C484        C  0.77254465  0.52581998  0.16768223     0.83600
C485        C  0.68169977  0.61598420  0.11289234     0.84000
O486        O  0.68826052  0.57952641  0.13102796    -0.81000
C487        C  0.60105404  0.31688774  0.36705025     0.03200
C488        C  0.61153175  0.35377502  0.34385817    -0.13000
C489        C  0.62948874  0.38272746  0.36743484     0.00700
C490        C  0.63667446  0.37474413  0.41444881    -0.11500
C491        C  0.62699467  0.33735465  0.43741105     0.03100
C492        C  0.60896473  0.30858056  0.41377525    -0.10900
H493        H  0.60612361  0.35948532  0.30736877     0.08700
H494        H  0.65094900  0.39663669  0.43253090     0.06300
H495        H  0.60160211  0.27943066  0.43130047     0.06100
C496        C  0.86180900  0.32220528  0.07504855     0.03200
C497        C  0.85178326  0.35809905  0.10001282    -0.13000
C498        C  0.83239901  0.38649273  0.07908747     0.00700
C499        C  0.82316724  0.37914255  0.03307399    -0.11500
C500        C  0.83287984  0.34333256  0.00790970     0.03100
C501        C  0.85232606  0.31492754  0.02888233    -0.10900
H502        H  0.85842605  0.36321942  0.13599839     0.08700
H503        H  0.80761275  0.40050558  0.01738633     0.06300
H504        H  0.85946938  0.28668698  0.00985975     0.06100
O505        O  0.69341161  0.26383084  0.80496583    -0.78500
C506        C  0.77489260  0.32233172  0.83074711     0.82600
O507        O  0.68877857  0.40803093  0.73573148    -0.79600
O508        O  0.78297637  0.38054281  0.69319363    -0.81100
O509        O  0.74961152  0.22924061  0.66974975    -0.80900
O510        O  0.69299366  0.22452395  0.73932866    -0.79500
Zn511      Zn  0.71491182  0.31894081  0.79007818     1.55700
O512        O  0.78589665  0.27263162  0.68373467    -0.80900
Cd513      Cd  0.71505024  0.26415494  0.69305860     1.59700
Cd514      Cd  0.71198561  0.36969338  0.69153402     1.59600
O515        O  0.68964461  0.27942124  0.63475955    -0.80900
O516        O  0.72772755  0.31854001  0.72551533    -1.91400
Cd517      Cd  0.76977150  0.32276806  0.72364699     1.59900
O518        O  0.68732447  0.35175561  0.63568972    -0.80800
O519        O  0.78685981  0.32041751  0.79092493    -0.79500
C520        C  0.68218907  0.40351686  0.77866089     0.83000
C521        C  0.68645583  0.22982121  0.78223669     0.82700
O522        O  0.74818347  0.32295780  0.83425865    -0.78400
C523        C  0.77580652  0.23762681  0.66673801     0.83500
O524        O  0.68994803  0.37081180  0.80297045    -0.78500
C525        C  0.68111472  0.31540639  0.61726382     0.83600
C526        C  0.76993721  0.40929578  0.66939027     0.84000
O527        O  0.74338689  0.40789293  0.66406335    -0.81000
C528        C  0.61742126  0.10183001  0.87649832     0.03200
C529        C  0.60759693  0.10974785  0.92207863    -0.13000
C530        C  0.58777470  0.08178049  0.94254715     0.00700
C531        C  0.57822498  0.04536394  0.91787484    -0.11500
C532        C  0.58786113  0.03708482  0.87255919     0.03100
C533        C  0.60762139  0.06519057  0.85200587    -0.10900
H534        H  0.61438168  0.13863476  0.94068657     0.08700
H535        H  0.56215597  0.02464679  0.93306558     0.06300
H536        H  0.61425354  0.05977563  0.81624809     0.06100
C537        C  0.85122905  0.11683966  0.57404989     0.03200
C538        C  0.85970460  0.07988640  0.59945550    -0.13000
C539        C  0.87978358  0.05146167  0.58098197     0.00700
C540        C  0.89085608  0.05989675  0.53635114    -0.11500
C541        C  0.88186655  0.09589978  0.51012682     0.03100
C542        C  0.86215342  0.12456193  0.52913068    -0.10900
H543        H  0.85111222  0.07380854  0.63401780     0.08700
H544        H  0.90659721  0.03841620  0.52199314     0.06300
H545        H  0.85569770  0.15302891  0.50944036     0.06100
O546        O  0.52035490  0.16172639  0.29796396    -0.78500
C547        C  0.93763244  0.11071324  0.33115022     0.82600
O548        O  0.51889811  0.01925063  0.23107434    -0.79600
O549        O  0.92213129  0.05927763  0.18960222    -0.81100
O550        O  0.96250736  0.19807814  0.15870706    -0.80900
O551        O  0.52003697  0.20042490  0.23138961    -0.79500
Zn552      Zn  0.99616400  0.10879620  0.28623979     1.55700
O553        O  0.92506938  0.16787944  0.19150021    -0.80900
Cd554      Cd  0.99585734  0.16219375  0.18678300     1.59700
Cd555      Cd  0.99404830  0.05739448  0.18905763     1.59600
O556        O  0.52126666  0.14367827  0.13139264    -0.80900
O557        O  0.98162909  0.11048214  0.22242271    -1.91400
Cd558      Cd  0.93956875  0.11249797  0.22401253     1.59900
O559        O  0.51791832  0.07144777  0.13129564    -0.80800
O560        O  0.92466670  0.11337959  0.29204905    -0.79500
C561        C  0.52641108  0.02234510  0.27375779     0.83000
C562        C  0.52783380  0.19472986  0.27386907     0.82700
O563        O  0.96435999  0.10813954  0.33294987    -0.78400
C564        C  0.93600600  0.19687535  0.16541384     0.83500
O565        O  0.51935440  0.05475871  0.29866349    -0.78500
C566        C  0.52719771  0.10676541  0.11401570     0.83600
C567        C  0.93331223  0.02633990  0.17030877     0.84000
O568        O  0.95982930  0.02121825  0.16807378    -0.81000
C569        C  0.88236559  0.08365266  0.42350815    -0.01800
C570        C  0.89409985  0.10379698  0.46331033     0.07900
C571        C  0.91874391  0.12878849  0.45914252    -0.01900
C572        C  0.93219100  0.13272705  0.41550925    -0.01900
C573        C  0.92150313  0.11042800  0.37577325     0.08000
C574        C  0.89601112  0.08663847  0.37984151    -0.02100
Br575      Br  0.88023123  0.05549616  0.32707937    -0.00700
Br576      Br  0.84787475  0.05087291  0.42959965    -0.00800
Br577      Br  0.96466422  0.17037374  0.41064346    -0.00700
Br578      Br  0.93446937  0.15664222  0.51396448    -0.00700
C579        C  0.58460020  0.07421206  0.02964798    -0.01800
C580        C  0.57441298  0.09254721  0.98758689     0.07900
C581        C  0.54961238  0.11748483  0.98769426    -0.01900
C582        C  0.53488979  0.12384189  0.02965495    -0.01900
C583        C  0.54459423  0.10447164  0.07154104     0.08000
C584        C  0.56959238  0.07983725  0.07157889    -0.02100
Br585      Br  0.58318341  0.05353117  0.12893971    -0.00700
Br586      Br  0.61855639  0.04011699  0.02913684    -0.00800
Br587      Br  0.50002835  0.15591261  0.02882091    -0.00700
Br588      Br  0.53464120  0.14042130  0.92972571    -0.00700
C589        C  0.84278860  0.17904322  0.62782016    -0.01800
C590        C  0.83203385  0.14852946  0.59589295     0.07900
C591        C  0.80305781  0.14701931  0.58642543    -0.01900
C592        C  0.78459194  0.17576877  0.60916789    -0.01900
C593        C  0.79509080  0.20622264  0.64267946     0.08000
C594        C  0.82456223  0.20677934  0.65226616    -0.02100
Br595      Br  0.84101821  0.24251626  0.70109699    -0.00700
Br596      Br  0.88300999  0.18336634  0.63698031    -0.00800
Br597      Br  0.74518616  0.17216238  0.59240637    -0.00700
Br598      Br  0.78889254  0.10513632  0.54170543    -0.00700
C599        C  0.68052276  0.15578388  0.81835191    -0.01800
C600        C  0.66917932  0.19654053  0.80598116     0.07900
C601        C  0.64099818  0.20594446  0.81646956    -0.01900
C602        C  0.62413998  0.17490034  0.83924277    -0.01900
C603        C  0.63548032  0.13431902  0.85246201     0.08000
C604        C  0.66371906  0.12473965  0.84173387    -0.02100
Br605      Br  0.67949692  0.06952895  0.86006381    -0.00700
Br606      Br  0.71925328  0.14312311  0.80440396    -0.00800
Br607      Br  0.58506617  0.18756971  0.85009937    -0.00700
Br608      Br  0.62516555  0.26106874  0.79789273    -0.00700
C609        C  0.79786505  0.30492077  0.95720263    -0.01800
C610        C  0.82056036  0.33415981  0.96117368     0.07900
C611        C  0.82963239  0.35752660  0.92148572    -0.01900
C612        C  0.81524896  0.35313665  0.87831443    -0.01900
C613        C  0.79211856  0.32421139  0.87440298     0.08000
C614        C  0.78420907  0.29901778  0.91378595    -0.02100
Br615      Br  0.75515104  0.25519942  0.90846798    -0.00700
Br616      Br  0.78418662  0.27501770  0.01212678    -0.00800
Br617      Br  0.82613062  0.38953832  0.82612953    -0.00700
Br618      Br  0.86131562  0.39658268  0.92706952    -0.00700
C619        C  0.87036803  0.25000080  0.11256228    -0.01800
C620        C  0.88081270  0.29068704  0.09839960     0.07900
C621        C  0.90913348  0.30142752  0.10705866    -0.01900
C622        C  0.92703027  0.27166075  0.13016761    -0.01900
C623        C  0.91710673  0.22944114  0.14214701     0.08000
C624        C  0.88851705  0.21875788  0.13220295    -0.02100
Br625      Br  0.87342732  0.16091706  0.14209385    -0.00700
Br626      Br  0.83058193  0.23792790  0.10733784    -0.00800
Br627      Br  0.96442247  0.29101996  0.14728115    -0.00700
Br628      Br  0.92333192  0.35725179  0.08680454    -0.00700
C629        C  0.67578134  0.29567698  0.53254514    -0.01800
C630        C  0.66478108  0.31594209  0.57277871     0.07900
C631        C  0.64006406  0.34119065  0.56866420    -0.01900
C632        C  0.62697144  0.34684467  0.52456673    -0.01900
C633        C  0.63821706  0.32687229  0.48458027     0.08000
C634        C  0.66227193  0.30058426  0.48880546    -0.02100
Br635      Br  0.67772582  0.27340640  0.43381115    -0.00700
Br636      Br  0.71130341  0.26570991  0.53562814    -0.00800
Br637      Br  0.59410749  0.38305120  0.51826413    -0.00700
Br638      Br  0.62421864  0.36867862  0.62316723    -0.00700
C639        C  0.55295258  0.28925017  0.34764180    -0.01800
C640        C  0.58228859  0.28633196  0.34201313     0.07900
C641        C  0.59366781  0.25422082  0.31265902    -0.03900
C642        C  0.57571784  0.22473292  0.28947598    -0.01900
C643        C  0.54643042  0.22710033  0.29597394     0.08000
C644        C  0.53504254  0.25951270  0.32480541    -0.02100
Br645      Br  0.49487534  0.26324170  0.33252727    -0.00700
Br646      Br  0.53741722  0.33437382  0.38629379    -0.00800
Br647      Br  0.59112249  0.18061151  0.24929854    -0.00700
Br648      Br  0.63385219  0.25024119  0.30502160    -0.00700
C649        C  0.62655396  0.45506536  0.32631998    -0.01800
C650        C  0.64276869  0.41952794  0.34227740     0.07900
C651        C  0.67218472  0.41985168  0.33602710    -0.01900
C652        C  0.68534903  0.45601456  0.31562696    -0.01900
C653        C  0.66911757  0.49050061  0.29796655     0.08000
C654        C  0.63972847  0.49026260  0.30341246    -0.02100
Br655      Br  0.61787224  0.53867132  0.28060782    -0.00700
Br656      Br  0.58662272  0.45641946  0.33761135    -0.00800
Br657      Br  0.72586775  0.45971592  0.31444325    -0.00700
Br658      Br  0.69459920  0.37014539  0.35360010    -0.00700
C659        C  0.81304920  0.49951833  0.11919346    -0.01800
C660        C  0.78976151  0.49031425  0.14822984     0.07900
C661        C  0.78243026  0.44667635  0.15778476    -0.01900
C662        C  0.79728908  0.41264733  0.13674402    -0.01900
C663        C  0.81961900  0.42196017  0.10616199     0.08000
C664        C  0.82790886  0.46528054  0.09820333    -0.02100
Br665      Br  0.85943873  0.47733352  0.05785202    -0.00700
Br666      Br  0.82363910  0.55878652  0.10537392    -0.00800
Br667      Br  0.78634753  0.35309294  0.14835132    -0.00700
Br668      Br  0.75234856  0.43297334  0.20045029    -0.00700
C669        C  0.78862396  0.52158110  0.62280440    -0.01800
C670        C  0.81444926  0.51349478  0.60096771     0.07900
C671        C  0.82639704  0.47186185  0.60272166    -0.01900
C672        C  0.81209060  0.43766308  0.62535906    -0.01900
C673        C  0.78582934  0.44539565  0.64706667     0.08000
C674        C  0.77432685  0.48784168  0.64587014    -0.02100
Br675      Br  0.73919878  0.50126806  0.67614227    -0.00700
Br676      Br  0.77276577  0.57934002  0.62065020    -0.00800
Br677      Br  0.82782982  0.37993023  0.62271163    -0.00700
Br678      Br  0.86201632  0.46178893  0.57260981    -0.00700
C679        C  0.82322629  0.57491695  0.42055458    -0.01800
C680        C  0.81738504  0.60390564  0.45733521     0.07900
C681        C  0.79839973  0.63837545  0.45001022    -0.01900
C682        C  0.78487958  0.64323727  0.40627006    -0.01900
C683        C  0.78972081  0.61296358  0.37021837     0.08000
C684        C  0.80901341  0.57886518  0.37740184    -0.02100
Br685      Br  0.81388402  0.53480591  0.33009483    -0.00700
Br686      Br  0.85033645  0.52905550  0.42981877    -0.00800
Br687      Br  0.75955922  0.69124400  0.39587640    -0.00700
Br688      Br  0.78933116  0.67703484  0.50082075    -0.00700
C689        C  0.68120825  0.47818113  0.81055554    -0.01800
C690        C  0.66690990  0.43899525  0.80154419     0.07900
C691        C  0.63836519  0.43459883  0.81363939    -0.01900
C692        C  0.62454847  0.46874768  0.83674263    -0.01900
C693        C  0.63887164  0.50810803  0.84531605     0.08000
C694        C  0.66691193  0.51320540  0.83056572    -0.02100
Br695      Br  0.68543462  0.56876087  0.83536704    -0.00700
Br696      Br  0.72088180  0.48316245  0.79764294    -0.00800
Br697      Br  0.58627711  0.46153277  0.85738581    -0.00700
Br698      Br  0.61807156  0.38263284  0.79702835    -0.00700
C699        C  0.67684881  0.62942929  0.02729438    -0.01800
C700        C  0.66470177  0.61575544  0.06974694     0.07900
C701        C  0.63727555  0.59824901  0.07005767    -0.01900
C702        C  0.62277106  0.59169764  0.02747200    -0.01900
C703        C  0.63561480  0.60326375  0.98484742     0.08000
C704        C  0.66199633  0.62416588  0.98504821    -0.02100
Br705      Br  0.67787289  0.64542904  0.92730666    -0.00700
Br706      Br  0.71489466  0.65137170  0.02625762    -0.00800
Br707      Br  0.58575618  0.56600250  0.02722924    -0.00700
Br708      Br  0.61987926  0.58294534  0.12884269    -0.00700
C709        C  0.88776326  0.69003922  0.66234778    -0.01800
C710        C  0.91499112  0.69826667  0.64466256     0.07900
C711        C  0.92387051  0.67654206  0.60356374    -0.01900
C712        C  0.90543993  0.64790722  0.58015131    -0.01900
C713        C  0.87781050  0.64195483  0.59645425     0.08000
C714        C  0.86895619  0.66342258  0.63733211    -0.02100
Br715      Br  0.83048503  0.65828636  0.65808493    -0.00700
Br716      Br  0.87642997  0.71236868  0.72267118    -0.00800
Br717      Br  0.91823506  0.61599771  0.52613159    -0.00700
Br718      Br  0.96075812  0.68637993  0.57738845    -0.00700
C719        C  0.57237758  0.70143857  0.79442290    -0.01800
C720        C  0.54296678  0.69939086  0.79898783     0.07900
C721        C  0.53042788  0.66592813  0.82547980    -0.01900
C722        C  0.54739030  0.63538991  0.84895400    -0.01900
C723        C  0.57683400  0.63803031  0.84526141     0.08000
C724        C  0.58933876  0.67076263  0.81762909    -0.02100
Br725      Br  0.62973639  0.67384751  0.81229589    -0.00700
Br726      Br  0.58929714  0.74639496  0.75651987    -0.00800
Br727      Br  0.53048402  0.58999574  0.88622682    -0.00700
Br728      Br  0.49002521  0.66148392  0.82851697    -0.00700
C729        C  0.91736389  0.98298232  0.67320044    -0.01800
C730        C  0.91598269  0.94160690  0.65256021     0.07900
C731        C  0.89939827  0.93524755  0.61204167    -0.01900
C732        C  0.88615348  0.97093125  0.59017874    -0.01900
C733        C  0.88997971  0.01326828  0.60816825     0.08000
C734        C  0.90506422  0.01897595  0.65058041    -0.02100
Br735      Br  0.91073423  0.07610339  0.67657655    -0.00700
Br736      Br  0.93501165  0.98966547  0.73377335    -0.00800
Br737      Br  0.86255143  0.96173672  0.53573704    -0.00700
Br738      Br  0.89556142  0.87789790  0.58569859    -0.00700
C739        C  0.56510547  0.92576028  0.82942817    -0.01800
C740        C  0.54374232  0.93699982  0.79678443     0.07900
C741        C  0.53826789  0.98141864  0.78753743    -0.01900
C742        C  0.55326684  0.01393360  0.81162757    -0.01900
C743        C  0.57407107  0.00256176  0.84471797     0.08000
C744        C  0.57998417  0.95851096  0.85362052    -0.02100
Br745      Br  0.60829260  0.94326925  0.89956170    -0.00700
Br746      Br  0.57508186  0.86568317  0.83989559    -0.00800
Br747      Br  0.54394884  0.07440950  0.80172306    -0.00700
Br748      Br  0.50913206  0.99883054  0.74408478    -0.00700
C749        C  0.91510014  0.95093265  0.17197148    -0.01800
C750        C  0.91537351  0.99198961  0.15039039     0.07900
C751        C  0.90120198  0.99838295  0.10749160    -0.01900
C752        C  0.88794997  0.96305713  0.08508647    -0.01900
C753        C  0.89018643  0.92077705  0.10430288     0.08000
C754        C  0.90350976  0.91507398  0.14840366    -0.02100
Br755      Br  0.90830443  0.85826905  0.17568172    -0.00700
Br756      Br  0.93011712  0.94441604  0.23462812    -0.00800
Br757      Br  0.86629237  0.97298604  0.02863527    -0.00700
Br758      Br  0.90104892  0.05510897  0.07858007    -0.00700
C759        C  0.89642405  0.84814890  0.87827405    -0.01800
C760        C  0.91837614  0.81770088  0.87326919     0.07900
C761        C  0.92593333  0.79089993  0.91170057    -0.01900
C762        C  0.91277835  0.79622467  0.95534950    -0.01900
C763        C  0.89197900  0.82816415  0.96077276     0.08000
C764        C  0.88309121  0.85294113  0.92185295    -0.02100
Br765      Br  0.85247122  0.89336552  0.92847276    -0.00700
Br766      Br  0.88591218  0.88602774  0.82692192    -0.00800
Br767      Br  0.92366464  0.76051727  0.00822275    -0.00700
Br768      Br  0.95402082  0.74631112  0.90476554    -0.00700
C769        C  0.80171391  0.78560930  0.08021475    -0.01800
C770        C  0.83000113  0.78772942  0.09459584     0.07900
C771        C  0.83967156  0.76115595  0.13142443    -0.01900
C772        C  0.82077470  0.73497467  0.15645281    -0.01900
C773        C  0.79244102  0.73108473  0.14120285     0.08000
C774        C  0.78304884  0.75666898  0.10257682    -0.02100
Br775      Br  0.74519084  0.75197707  0.07809911    -0.00700
Br776      Br  0.78878195  0.82224276  0.02932929    -0.00800
Br777      Br  0.83403780  0.70770005  0.21375179    -0.00700
Br778      Br  0.87936188  0.75784280  0.14523769    -0.00700
C779        C  0.53448746  0.94282327  0.28710737    -0.01800
C780        C  0.54272323  0.98641789  0.29524178     0.07900
C781        C  0.56595586  0.99512779  0.32504469    -0.01900
C782        C  0.57963624  0.96075517  0.34853366    -0.01900
C783        C  0.57023196  0.91782360  0.34217856     0.08000
C784        C  0.54807275  0.90880525  0.31085215    -0.02100
Br785      Br  0.53565365  0.84952111  0.30177427    -0.00700
Br786      Br  0.50385398  0.92853180  0.24512991    -0.00800
Br787      Br  0.61135323  0.97199914  0.38926903    -0.00700
Br788      Br  0.58016097  0.05360577  0.33188981    -0.00700
C789        C  0.52310673  0.80641402  0.52470065    -0.01800
C790        C  0.53736768  0.81483213  0.56712880     0.07900
C791        C  0.56631218  0.82460455  0.56698636    -0.01900
C792        C  0.58062999  0.82866213  0.52416221    -0.01900
C793        C  0.56606606  0.82210691  0.48159372     0.08000
C794        C  0.53759219  0.80923387  0.48200026    -0.02100
Br795      Br  0.51849542  0.79560179  0.42394132    -0.00700
Br796      Br  0.98333075  0.79388536  0.52492570    -0.00800
Br797      Br  0.61979452  0.84510922  0.52359148    -0.00700
Br798      Br  0.58611289  0.83285978  0.62554879    -0.00700
C799        C  0.67556798  0.76412953  0.32265783    -0.01800
C800        C  0.66385302  0.72876871  0.29819027     0.07900
C801        C  0.63462596  0.72171415  0.29800236    -0.01900
C802        C  0.61701887  0.74993122  0.32272599    -0.01900
C803        C  0.62871163  0.78527422  0.34742544     0.08000
C804        C  0.65795331  0.79257475  0.34713791    -0.02100
Br805      Br  0.67374817  0.84127475  0.38068085    -0.00700
Br806      Br  0.71572036  0.77313051  0.32287396    -0.00800
Br807      Br  0.57688329  0.74055689  0.32227128    -0.00700
Br808      Br  0.61888231  0.67337766  0.26366818    -0.00700
loop_ 
_geom_bond_atom_site_label_1 
_geom_bond_atom_site_label_2 
_geom_bond_distance 
_geom_bond_site_symmetry_2 
_ccdc_geom_bond_type 
C1            C2   1.403       .  A
C1            C6   1.400       .  A
C1          C399   1.471       .  S
C2            C3   1.402       .  A
C2            H7   1.085       .  S
C3            C4   1.401       .  A
C3          C389   1.475       .  S
C4            C5   1.398       .  A
C4            H8   1.085       .  S
C5            C6   1.398       .  A
C5          C379   1.471       .  S
C6            H9   1.084       .  S
C10          C11   1.401       .  A
C10          C15   1.403       .  A
C10         C366   1.475       .  S
C11          C12   1.399       .  A
C11          H16   1.084       .  S
C12          C13   1.404       .  A
C12         C359   1.477   1_554  S
C13          C14   1.405       .  A
C13          H17   1.084       .  S
C14          C15   1.403       .  A
C14         C349   1.487       .  S
C15          H18   1.085       .  S
O19          C35   1.273       .  A
O19         Zn25   2.008       .  S
C20         C316   1.467       .  S
C20          O36   1.274       .  A
C20          O33   1.272       .  A
O21          C34   1.274       .  A
O21        Cd432   2.070   1_455  S
O22          C40   1.273       .  A
O22        Cd435   2.066   1_455  S
O23          C37   1.274       .  A
O23         Cd27   2.065       .  S
O24          C35   1.275       .  A
O24         Cd27   2.077       .  S
Zn25        O440   2.021       .  S
Zn25        O442   2.021       .  S
Zn25         O30   1.941       .  S
O26          C37   1.272       .  A
O26         Cd31   2.060       .  S
Cd27         O29   2.075       .  S
Cd27         O30   2.002       .  S
Cd28         O32   2.079       .  S
Cd28        O425   2.070       .  S
Cd28        O445   2.070       .  S
Cd28         O30   1.995       .  S
O29          C39   1.274       .  A
O30         Cd31   2.001       .  S
Cd31        O426   2.066       .  S
Cd31        O437   2.057       .  S
O32          C39   1.276       .  A
O33        Cd435   2.057   1_455  S
C34         C336   1.487       .  S
C34          O38   1.274       .  A
C35         C356   1.481       .  S
O36        Zn429   2.021   1_455  S
C37         C306   1.484       .  S
O38        Zn429   2.021   1_455  S
C39         C326   1.477       .  S
C40         C386   1.469       .  S
C40          O41   1.275       .  A
O41        Cd432   2.070   1_455  S
C42          C43   1.402       .  A
C42          C47   1.403       .  A
C42         C319   1.471       .  S
C43          C44   1.399       .  A
C43          H48   1.084       .  S
C44          C45   1.402       .  A
C44         C299   1.474       .  S
C45          C46   1.401       .  A
C45          H49   1.085       .  S
C46          C47   1.401       .  A
C46         C289   1.478       .  S
C47          H50   1.084       .  S
C51          C52   1.403       .  A
C51          C56   1.406       .  A
C51         C309   1.478       .  S
C52          C53   1.396       .  A
C52          H57   1.086       .  S
C53          C54   1.397       .  A
C53         C266   1.471       .  S
C54          C55   1.400       .  A
C54          H58   1.083       .  S
C55          C56   1.403       .  A
C55         C276   1.477       .  S
C56          H59   1.085       .  S
O60          C76   1.272       .  A
O60         Zn66   2.001       .  S
C61         C396   1.462       .  S
C61          O77   1.271       .  A
C61          O74   1.273       .  A
O62          C75   1.273       .  A
O62         Cd69   2.065       .  S
O63          C81   1.275       .  A
O63         Cd72   2.071       .  S
O64          C78   1.273       .  A
O64         Cd68   2.059       .  S
O65          C76   1.274       .  A
O65         Cd68   2.069       .  S
Zn66         O77   1.996       .  S
Zn66         O79   2.008       .  S
Zn66         O71   1.936       .  S
O67          C78   1.273       .  A
O67         Cd72   2.069       .  S
Cd68         O70   2.066       .  S
Cd68         O71   1.994       .  S
Cd69         O73   2.070       .  S
Cd69         O82   2.053       .  S
Cd69         O71   1.990       .  S
O70          C80   1.273       .  A
O71         Cd72   2.002       .  S
Cd72         O74   2.064       .  S
O73          C80   1.275       .  A
C75         C249   1.467       .  S
C75          O79   1.271       .  A
C76         C279   1.473       .  S
C78         C369   1.489       .  S
C80         C256   1.480       .  S
C81         C296   1.468       .  S
C81          O82   1.273       .  A
C83          C84   1.403       .  A
C83          C88   1.405       .  A
C83         C236   1.477       .  S
C84          C85   1.403       .  A
C84          H89   1.084       .  S
C85          C86   1.402       .  A
C85         C246   1.480       .  S
C86          C87   1.400       .  A
C86          H90   1.084       .  S
C87          C88   1.402       .  A
C87         C229   1.479       .  S
C88          H91   1.084       .  S
C92          C93   1.403       .  A
C92          C97   1.407       .  A
C92         C216   1.481       .  S
C93          C94   1.401       .  A
C93          H98   1.084       .  S
C94          C95   1.400       .  A
C94         C259   1.475       .  S
C95          C96   1.399       .  A
C95          H99   1.085       .  S
C96          C97   1.404       .  A
C96         C206   1.480   1_554  S
C97         H100   1.083       .  S
O101        C117   1.275       .  A
O101       Zn107   2.023       .  S
C102        C209   1.487       .  S
C102        O118   1.275       .  A
C102        O115   1.275       .  A
O103        C116   1.272       .  A
O103       Cd110   2.059       .  S
O104        C122   1.274       .  A
O104       Cd113   2.073       .  S
O105        C119   1.275       .  A
O105       Cd109   2.081       .  S
O106        C117   1.276       .  A
O106       Cd109   2.080       .  S
Zn107       O118   2.020       .  S
Zn107       O120   2.029       .  S
Zn107       O112   1.943       .  S
O108        C119   1.274       .  A
O108       Cd113   2.074       .  S
Cd109       O111   2.101       .  S
Cd109       O112   2.005       .  S
Cd110       O114   2.048       .  S
Cd110       O123   2.055       .  S
Cd110       O112   1.991       .  S
O111        C121   1.279       .  A
O112       Cd113   2.004       .  S
Cd113       O115   2.079       .  S
O114        C121   1.271       .  A
C116        C286   1.471       .  S
C116        O120   1.274       .  A
C117        C196   1.476       .  S
C119        C189   1.505       .  S
C121        C226   1.483       .  S
C122        C269   1.485       .  S
C122        O123   1.271       .  A
C124        C125   1.406       .  A
C124        C129   1.406       .  A
C124        C199   1.485       .  S
C125        C126   1.403       .  A
C125        H130   1.084       .  S
C126        C127   1.399       .  A
C126        C176   1.476       .  S
C127        C128   1.399       .  A
C127        H131   1.085       .  S
C128        C129   1.405       .  A
C128        C339   1.478       .  S
C129        H132   1.083       .  S
C133        C134   1.405       .  A
C133        C138   1.404       .  A
C133        C186   1.480       .  S
C134        C135   1.404       .  A
C134        H139   1.085       .  S
C135        C136   1.403       .  A
C135        C329   1.487       .  S
C136        C137   1.401       .  A
C136        H140   1.084       .  S
C137        C138   1.403       .  A
C137        C166   1.479       .  S
C138        H141   1.083       .  S
O142        C158   1.275       .  A
O142       Zn552   2.019   1_455  S
C143        C169   1.490       .  S
C143        O159   1.275       .  A
C143        O156   1.273       .  A
O144        C157   1.270       .  A
O144       Cd555   2.047   1_455  S
O145        C163   1.275       .  A
O145       Cd154   2.080       .  S
O146        C160   1.276       .  A
O146       Cd150   2.089       .  S
O147        C158   1.276       .  A
O147       Cd554   2.076   1_455  S
Zn148       O159   2.022       .  S
Zn148       O546   2.019       .  S
Zn148       O565   2.028       .  S
Zn148       O153   1.943       .  S
O149        C160   1.272       .  A
O149       Cd154   2.056       .  S
Cd150       O551   2.076       .  S
Cd150       O556   2.078       .  S
Cd150       O153   2.003       .  S
Cd151       O164   2.056       .  S
Cd151       O548   2.047       .  S
Cd151       O559   2.050       .  S
Cd151       O153   1.988       .  S
O152        C162   1.275       .  A
O152       Cd554   2.078   1_455  S
O153       Cd154   2.002       .  S
Cd154       O156   2.070       .  S
O155        C162   1.271       .  A
O155       Cd555   2.050   1_455  S
C157        C376   1.481   1_545  S
C157        O161   1.274       .  A
C158        C239   1.471       .  S
C160        C219   1.499       .  S
O161       Zn552   2.028   1_455  S
C162        C179   1.473       .  S
C163        C346   1.470   1_545  S
C163        O164   1.274       .  A
C165        C166   1.407       .  A
C165        C170   1.410       .  A
C165       Br172   1.931       .  S
C166        C167   1.405       .  A
C167        C168   1.407       .  A
C167       Br174   1.931       .  S
C168        C169   1.418       .  A
C168       Br173   1.933       .  S
C169        C170   1.419       .  A
C170       Br171   1.933       .  S
C175        C176   1.407   1_554  A
C175        C180   1.408       .  A
C175       Br182   1.929       .  S
C176        C177   1.410       .  A
C177        C178   1.405   1_556  A
C177       Br184   1.928       .  S
C178        C179   1.408       .  A
C178       Br183   1.933       .  S
C179        C180   1.412       .  A
C180       Br181   1.931       .  S
C185        C186   1.404       .  A
C185        C190   1.409       .  A
C185       Br192   1.933       .  S
C186        C187   1.403       .  A
C187        C188   1.412       .  A
C187       Br194   1.933       .  S
C188        C189   1.428       .  A
C188       Br193   1.934       .  S
C189        C190   1.426       .  A
C190       Br191   1.937       .  S
C195        C196   1.410       .  A
C195        C200   1.412       .  A
C195       Br202   1.928       .  S
C196        C197   1.406       .  A
C197        C198   1.405       .  A
C197       Br204   1.930       .  S
C198        C199   1.411       .  A
C198       Br203   1.927       .  S
C199        C200   1.412       .  A
C200       Br201   1.929       .  S
C205        C206   1.407       .  A
C205        C210   1.406       .  A
C205       Br212   1.929   1_556  S
C206        C207   1.408       .  A
C207        C208   1.411       .  A
C207       Br214   1.931       .  S
C208        C209   1.417       .  A
C208       Br213   1.931       .  S
C209        C210   1.414       .  A
C210       Br211   1.934       .  S
C215        C216   1.405       .  A
C215        C220   1.407       .  A
C215       Br222   1.932       .  S
C216        C217   1.406       .  A
C217        C218   1.411       .  A
C217       Br224   1.932       .  S
C218        C219   1.422       .  A
C218       Br223   1.934       .  S
C219        C220   1.425       .  A
C220       Br221   1.938       .  S
C225        C226   1.412       .  A
C225        C230   1.407       .  A
C225       Br232   1.929       .  S
C226        C227   1.416       .  A
C227        C228   1.410       .  A
C227       Br234   1.931       .  S
C228        C229   1.407       .  A
C228       Br233   1.930       .  S
C229        C230   1.408       .  A
C230       Br231   1.931       .  S
C235        C236   1.409       .  A
C235        C240   1.407       .  A
C235       Br242   1.929       .  S
C236        C237   1.410       .  A
C237        C238   1.408       .  A
C237       Br244   1.929       .  S
C238        C239   1.409       .  A
C238       Br243   1.930       .  S
C239        C240   1.408       .  A
C240       Br241   1.928   1_455  S
C245        C246   1.413       .  A
C245        C250   1.410       .  A
C245       Br252   1.929       .  S
C246        C247   1.411       .  A
C247        C248   1.402       .  A
C247       Br254   1.931       .  S
C248        C249   1.405       .  A
C248       Br253   1.930       .  S
C249        C250   1.407       .  A
C250       Br251   1.928       .  S
C255        C256   1.414       .  A
C255        C260   1.409       .  A
C255       Br262   1.931       .  S
C256        C257   1.413       .  A
C257        C258   1.405       .  A
C257       Br264   1.929       .  S
C258        C259   1.407       .  A
C258       Br263   1.932       .  S
C259        C260   1.407       .  A
C260       Br261   1.930       .  S
C265        C266   1.404       .  A
C265        C270   1.403       .  A
C265       Br272   1.935       .  S
C266        C267   1.404       .  A
C267        C268   1.408       .  A
C267       Br274   1.931       .  S
C268        C269   1.419       .  A
C268       Br273   1.933       .  S
C269        C270   1.419       .  A
C270       Br271   1.932       .  S
C275        C276   1.410       .  A
C275        C280   1.405       .  A
C275       Br282   1.932       .  S
C276        C277   1.410       .  A
C277        C278   1.407       .  A
C277       Br284   1.931       .  S
C278        C279   1.411       .  A
C278       Br283   1.930       .  S
C279        C280   1.410       .  A
C280       Br281   1.932       .  S
C285        C286   1.407       .  A
C285        C290   1.402       .  A
C285       Br292   1.930       .  S
C286        C287   1.409       .  A
C287        C288   1.410       .  A
C287       Br294   1.925       .  S
C288        C289   1.409       .  A
C288       Br293   1.928       .  S
C289        C290   1.409       .  A
C290       Br291   1.926       .  S
C295        C296   1.407       .  A
C295        C300   1.402   1_554  A
C295       Br302   1.930       .  S
C296        C297   1.410       .  A
C297        C298   1.407       .  A
C297       Br304   1.930       .  S
C298        C299   1.408   1_554  A
C298       Br303   1.927       .  S
C299        C300   1.408       .  A
C300       Br301   1.927       .  S
C305        C306   1.414       .  A
C305        C310   1.404       .  A
C305       Br312   1.935       .  S
C306        C307   1.419       .  A
C307        C308   1.408       .  A
C307       Br314   1.933       .  S
C308        C309   1.408       .  A
C308       Br313   1.933       .  S
C309        C310   1.410       .  A
C310       Br311   1.932       .  S
C315        C316   1.407       .  A
C315        C320   1.405       .  A
C315       Br322   1.929       .  S
C316        C317   1.408       .  A
C317        C318   1.406       .  A
C317       Br324   1.928   1_455  S
C318        C319   1.407       .  A
C318       Br323   1.929       .  S
C319        C320   1.409       .  A
C320       Br321   1.930       .  S
C325        C326   1.407       .  A
C325        C330   1.407   1_565  A
C325       Br332   1.927       .  S
C326        C327   1.408       .  A
C327        C328   1.409       .  A
C327       Br334   1.929       .  S
C328        C329   1.413   1_565  A
C328       Br333   1.931       .  S
C329        C330   1.413       .  A
C330       Br331   1.929       .  S
C335        C336   1.416       .  A
C335        C340   1.410       .  A
C335       Br342   1.933       .  S
C336        C337   1.416       .  A
C337        C338   1.406   1_565  A
C337       Br344   1.929       .  S
C338        C339   1.407       .  A
C338       Br343   1.935       .  S
C339        C340   1.408   1_545  A
C340       Br341   1.930       .  S
C345        C346   1.404       .  A
C345        C350   1.404       .  A
C345       Br352   1.930       .  S
C346        C347   1.406       .  A
C347        C348   1.408       .  A
C347       Br354   1.928   1_565  S
C348        C349   1.414       .  A
C348       Br353   1.929       .  S
C349        C350   1.415       .  A
C350       Br351   1.925       .  S
C355        C356   1.414       .  A
C355        C360   1.407       .  A
C355       Br362   1.932       .  S
C356        C357   1.414       .  A
C357        C358   1.407       .  A
C357       Br364   1.930       .  S
C358        C359   1.407       .  A
C358       Br363   1.931   1_556  S
C359        C360   1.408       .  A
C360       Br361   1.930       .  S
C365        C366   1.405       .  A
C365        C370   1.409       .  A
C365       Br372   1.933       .  S
C366        C367   1.405       .  A
C367        C368   1.402       .  A
C367       Br374   1.929       .  S
C368        C369   1.418       .  A
C368       Br373   1.937       .  S
C369        C370   1.422       .  A
C370       Br371   1.932       .  S
C375        C376   1.416       .  A
C375        C380   1.402       .  A
C375       Br382   1.930       .  S
C376        C377   1.415       .  A
C377        C378   1.409       .  A
C377       Br384   1.931   1_565  S
C378        C379   1.406       .  A
C378       Br383   1.929       .  S
C379        C380   1.405       .  A
C380       Br381   1.934       .  S
C385        C386   1.408       .  A
C385        C390   1.405       .  A
C385       Br796   1.929   1_455  S
C386        C387   1.408       .  A
C387        C388   1.407       .  A
C387       Br394   1.929       .  S
C388        C389   1.408       .  A
C388       Br393   1.929       .  S
C389        C390   1.410       .  A
C390       Br391   1.930       .  S
Br392       C789   1.929       .  S
C395        C396   1.407       .  A
C395        C400   1.405       .  A
C395       Br402   1.929       .  S
C396        C397   1.406       .  A
C397        C398   1.404       .  A
C397       Br404   1.931       .  S
C398        C399   1.409       .  A
C398       Br403   1.929       .  S
C399        C400   1.408       .  A
C400       Br401   1.929       .  S
C405        C406   1.403       .  A
C405        C410   1.400       .  A
C405        C803   1.471       .  S
C406        C407   1.402       .  A
C406        H411   1.085       .  S
C407        C408   1.401       .  A
C407        C793   1.475       .  S
C408        C409   1.398       .  A
C408        H412   1.085       .  S
C409        C410   1.398       .  A
C409        C783   1.471       .  S
C410        H413   1.084       .  S
C414        C415   1.401       .  A
C414        C419   1.403       .  A
C414        C770   1.475       .  S
C415        C416   1.399       .  A
C415        H420   1.084       .  S
C416        C417   1.404       .  A
C416        C763   1.477   1_554  S
C417        C418   1.405       .  A
C417        H421   1.084       .  S
C418        C419   1.403       .  A
C418        C753   1.487       .  S
C419        H422   1.085       .  S
O423        C439   1.273       .  A
O423       Zn429   2.008       .  S
C424        C720   1.467       .  S
C424        O440   1.274       .  A
C424        O437   1.272       .  A
O425        C438   1.274       .  A
O426        C444   1.273       .  A
O427        C441   1.274       .  A
O427       Cd431   2.065       .  S
O428        C439   1.275       .  A
O428       Cd431   2.077       .  S
Zn429       O434   1.941       .  S
O430        C441   1.272       .  A
O430       Cd435   2.060       .  S
Cd431       O433   2.075       .  S
Cd431       O434   2.002       .  S
Cd432       O436   2.079       .  S
Cd432       O434   1.995       .  S
O433        C443   1.274       .  A
O434       Cd435   2.001       .  S
O436        C443   1.276       .  A
C438        C740   1.487       .  S
C438        O442   1.274       .  A
C439        C760   1.481       .  S
C441        C710   1.484       .  S
C443        C730   1.477       .  S
C444        C790   1.469       .  S
C444        O445   1.275       .  A
C446        C447   1.402       .  A
C446        C451   1.403       .  A
C446        C723   1.471       .  S
C447        C448   1.399       .  A
C447        H452   1.084       .  S
C448        C449   1.402       .  A
C448        C703   1.474       .  S
C449        C450   1.401       .  A
C449        H453   1.085       .  S
C450        C451   1.401       .  A
C450        C693   1.478       .  S
C451        H454   1.084       .  S
C455        C456   1.403       .  A
C455        C460   1.406       .  A
C455        C713   1.478       .  S
C456        C457   1.396       .  A
C456        H461   1.086       .  S
C457        C458   1.397       .  A
C457        C670   1.471       .  S
C458        C459   1.400       .  A
C458        H462   1.083       .  S
C459        C460   1.403       .  A
C459        C680   1.477       .  S
C460        H463   1.085       .  S
O464        C480   1.272       .  A
O464       Zn470   2.001       .  S
C465        C800   1.462       .  S
C465        O481   1.271       .  A
C465        O478   1.273       .  A
O466        C479   1.273       .  A
O466       Cd473   2.065       .  S
O467        C485   1.275       .  A
O467       Cd476   2.071       .  S
O468        C482   1.273       .  A
O468       Cd472   2.059       .  S
O469        C480   1.274       .  A
O469       Cd472   2.069       .  S
Zn470       O481   1.996       .  S
Zn470       O483   2.008       .  S
Zn470       O475   1.936       .  S
O471        C482   1.273       .  A
O471       Cd476   2.069       .  S
Cd472       O474   2.066       .  S
Cd472       O475   1.994       .  S
Cd473       O477   2.070       .  S
Cd473       O486   2.053       .  S
Cd473       O475   1.990       .  S
O474        C484   1.273       .  A
O475       Cd476   2.002       .  S
Cd476       O478   2.064       .  S
O477        C484   1.275       .  A
C479        C653   1.467       .  S
C479        O483   1.271       .  A
C480        C683   1.473       .  S
C482        C773   1.489       .  S
C484        C660   1.480       .  S
C485        C700   1.468       .  S
C485        O486   1.273       .  A
C487        C488   1.403       .  A
C487        C492   1.405       .  A
C487        C640   1.477       .  S
C488        C489   1.403       .  A
C488        H493   1.084       .  S
C489        C490   1.402       .  A
C489        C650   1.480       .  S
C490        C491   1.400       .  A
C490        H494   1.084       .  S
C491        C492   1.402       .  A
C491        C633   1.479       .  S
C492        H495   1.084       .  S
C496        C497   1.403       .  A
C496        C501   1.407       .  A
C496        C620   1.481       .  S
C497        C498   1.401       .  A
C497        H502   1.084       .  S
C498        C499   1.400       .  A
C498        C663   1.475       .  S
C499        C500   1.399       .  A
C499        H503   1.085       .  S
C500        C501   1.404       .  A
C500        C610   1.480   1_554  S
C501        H504   1.083       .  S
O505        C521   1.275       .  A
O505       Zn511   2.023       .  S
C506        C613   1.487       .  S
C506        O522   1.275       .  A
C506        O519   1.275       .  A
O507        C520   1.272       .  A
O507       Cd514   2.059       .  S
O508        C526   1.274       .  A
O508       Cd517   2.073       .  S
O509        C523   1.275       .  A
O509       Cd513   2.081       .  S
O510        C521   1.276       .  A
O510       Cd513   2.080       .  S
Zn511       O522   2.020       .  S
Zn511       O524   2.029       .  S
Zn511       O516   1.943       .  S
O512        C523   1.274       .  A
O512       Cd517   2.074       .  S
Cd513       O515   2.101       .  S
Cd513       O516   2.005       .  S
Cd514       O518   2.048       .  S
Cd514       O527   2.055       .  S
Cd514       O516   1.991       .  S
O515        C525   1.279       .  A
O516       Cd517   2.004       .  S
Cd517       O519   2.079       .  S
O518        C525   1.271       .  A
C520        C690   1.471       .  S
C520        O524   1.274       .  A
C521        C600   1.476       .  S
C523        C593   1.505       .  S
C525        C630   1.483       .  S
C526        C673   1.485       .  S
C526        O527   1.271       .  A
C528        C529   1.406       .  A
C528        C533   1.406       .  A
C528        C603   1.485       .  S
C529        C530   1.403       .  A
C529        H534   1.084       .  S
C530        C531   1.399       .  A
C530        C580   1.476       .  S
C531        C532   1.398       .  A
C531        H535   1.085       .  S
C532        C533   1.405       .  A
C532        C743   1.478       .  S
C533        H536   1.083       .  S
C537        C538   1.405       .  A
C537        C542   1.404       .  A
C537        C590   1.480       .  S
C538        C539   1.404       .  A
C538        H543   1.085       .  S
C539        C540   1.403       .  A
C539        C733   1.487       .  S
C540        C541   1.401       .  A
C540        H544   1.084       .  S
C541        C542   1.403       .  A
C541        C570   1.479       .  S
C542        H545   1.083       .  S
O546        C562   1.275       .  A
C547        C573   1.490       .  S
C547        O563   1.275       .  A
C547        O560   1.273       .  A
O548        C561   1.270       .  A
O549        C567   1.275       .  A
O549       Cd558   2.080       .  S
O550        C564   1.276       .  A
O550       Cd554   2.089       .  S
O551        C562   1.276       .  A
Zn552       O563   2.022       .  S
Zn552       O557   1.943       .  S
O553        C564   1.272       .  A
O553       Cd558   2.056       .  S
Cd554       O557   2.003       .  S
Cd555       O568   2.056       .  S
Cd555       O557   1.988       .  S
O556        C566   1.275       .  A
O557       Cd558   2.002       .  S
Cd558       O560   2.070       .  S
O559        C566   1.271       .  A
C561        C780   1.481   1_545  S
C561        O565   1.274       .  A
C562        C643   1.471       .  S
C564        C623   1.499       .  S
C566        C583   1.473       .  S
C567        C750   1.470   1_545  S
C567        O568   1.274       .  A
C569        C570   1.407       .  A
C569        C574   1.410       .  A
C569       Br576   1.931       .  S
C570        C571   1.405       .  A
C571        C572   1.407       .  A
C571       Br578   1.931       .  S
C572        C573   1.418       .  A
C572       Br577   1.933       .  S
C573        C574   1.419       .  A
C574       Br575   1.933       .  S
C579        C580   1.407   1_554  A
C579        C584   1.408       .  A
C579       Br586   1.929       .  S
C580        C581   1.410       .  A
C581        C582   1.405   1_556  A
C581       Br588   1.928       .  S
C582        C583   1.408       .  A
C582       Br587   1.933       .  S
C583        C584   1.412       .  A
C584       Br585   1.931       .  S
C589        C590   1.404       .  A
C589        C594   1.409       .  A
C589       Br596   1.933       .  S
C590        C591   1.403       .  A
C591        C592   1.412       .  A
C591       Br598   1.933       .  S
C592        C593   1.428       .  A
C592       Br597   1.934       .  S
C593        C594   1.426       .  A
C594       Br595   1.937       .  S
C599        C600   1.410       .  A
C599        C604   1.412       .  A
C599       Br606   1.928       .  S
C600        C601   1.406       .  A
C601        C602   1.405       .  A
C601       Br608   1.930       .  S
C602        C603   1.411       .  A
C602       Br607   1.927       .  S
C603        C604   1.412       .  A
C604       Br605   1.929       .  S
C609        C610   1.407       .  A
C609        C614   1.406       .  A
C609       Br616   1.929   1_556  S
C610        C611   1.408       .  A
C611        C612   1.411       .  A
C611       Br618   1.931       .  S
C612        C613   1.417       .  A
C612       Br617   1.931       .  S
C613        C614   1.414       .  A
C614       Br615   1.934       .  S
C619        C620   1.405       .  A
C619        C624   1.407       .  A
C619       Br626   1.932       .  S
C620        C621   1.406       .  A
C621        C622   1.411       .  A
C621       Br628   1.932       .  S
C622        C623   1.422       .  A
C622       Br627   1.934       .  S
C623        C624   1.425       .  A
C624       Br625   1.938       .  S
C629        C630   1.412       .  A
C629        C634   1.407       .  A
C629       Br636   1.929       .  S
C630        C631   1.416       .  A
C631        C632   1.410       .  A
C631       Br638   1.931       .  S
C632        C633   1.407       .  A
C632       Br637   1.930       .  S
C633        C634   1.408       .  A
C634       Br635   1.931       .  S
C639        C640   1.409       .  A
C639        C644   1.407       .  A
C639       Br646   1.929       .  S
C640        C641   1.410       .  A
C641        C642   1.408       .  A
C641       Br648   1.929       .  S
C642        C643   1.409       .  A
C642       Br647   1.930       .  S
C643        C644   1.408       .  A
C644       Br645   1.928       .  S
C649        C650   1.413       .  A
C649        C654   1.410       .  A
C649       Br656   1.929       .  S
C650        C651   1.411       .  A
C651        C652   1.402       .  A
C651       Br658   1.931       .  S
C652        C653   1.405       .  A
C652       Br657   1.930       .  S
C653        C654   1.407       .  A
C654       Br655   1.928       .  S
C659        C660   1.414       .  A
C659        C664   1.409       .  A
C659       Br666   1.931       .  S
C660        C661   1.413       .  A
C661        C662   1.405       .  A
C661       Br668   1.929       .  S
C662        C663   1.407       .  A
C662       Br667   1.932       .  S
C663        C664   1.407       .  A
C664       Br665   1.930       .  S
C669        C670   1.404       .  A
C669        C674   1.403       .  A
C669       Br676   1.935       .  S
C670        C671   1.404       .  A
C671        C672   1.408       .  A
C671       Br678   1.931       .  S
C672        C673   1.419       .  A
C672       Br677   1.933       .  S
C673        C674   1.419       .  A
C674       Br675   1.932       .  S
C679        C680   1.410       .  A
C679        C684   1.405       .  A
C679       Br686   1.932       .  S
C680        C681   1.410       .  A
C681        C682   1.407       .  A
C681       Br688   1.931       .  S
C682        C683   1.411       .  A
C682       Br687   1.930       .  S
C683        C684   1.410       .  A
C684       Br685   1.932       .  S
C689        C690   1.407       .  A
C689        C694   1.402       .  A
C689       Br696   1.930       .  S
C690        C691   1.409       .  A
C691        C692   1.410       .  A
C691       Br698   1.925       .  S
C692        C693   1.409       .  A
C692       Br697   1.928       .  S
C693        C694   1.409       .  A
C694       Br695   1.926       .  S
C699        C700   1.407       .  A
C699        C704   1.402   1_554  A
C699       Br706   1.930       .  S
C700        C701   1.410       .  A
C701        C702   1.407       .  A
C701       Br708   1.930       .  S
C702        C703   1.408   1_554  A
C702       Br707   1.927       .  S
C703        C704   1.408       .  A
C704       Br705   1.927       .  S
C709        C710   1.414       .  A
C709        C714   1.404       .  A
C709       Br716   1.935       .  S
C710        C711   1.419       .  A
C711        C712   1.408       .  A
C711       Br718   1.933       .  S
C712        C713   1.408       .  A
C712       Br717   1.933       .  S
C713        C714   1.410       .  A
C714       Br715   1.932       .  S
C719        C720   1.407       .  A
C719        C724   1.405       .  A
C719       Br726   1.929       .  S
C720        C721   1.408       .  A
C721        C722   1.406       .  A
C721       Br728   1.928       .  S
C722        C723   1.407       .  A
C722       Br727   1.929       .  S
C723        C724   1.409       .  A
C724       Br725   1.930       .  S
C729        C730   1.407       .  A
C729        C734   1.407   1_565  A
C729       Br736   1.927       .  S
C730        C731   1.408       .  A
C731        C732   1.409       .  A
C731       Br738   1.929       .  S
C732        C733   1.413   1_565  A
C732       Br737   1.931       .  S
C733        C734   1.413       .  A
C734       Br735   1.929       .  S
C739        C740   1.416       .  A
C739        C744   1.410       .  A
C739       Br746   1.933       .  S
C740        C741   1.416       .  A
C741        C742   1.406   1_565  A
C741       Br748   1.929       .  S
C742        C743   1.407       .  A
C742       Br747   1.935       .  S
C743        C744   1.408   1_545  A
C744       Br745   1.930       .  S
C749        C750   1.404       .  A
C749        C754   1.404       .  A
C749       Br756   1.930       .  S
C750        C751   1.406       .  A
C751        C752   1.408       .  A
C751       Br758   1.928   1_565  S
C752        C753   1.414       .  A
C752       Br757   1.929       .  S
C753        C754   1.415       .  A
C754       Br755   1.925       .  S
C759        C760   1.414       .  A
C759        C764   1.407       .  A
C759       Br766   1.932       .  S
C760        C761   1.414       .  A
C761        C762   1.407       .  A
C761       Br768   1.930       .  S
C762        C763   1.407       .  A
C762       Br767   1.931   1_556  S
C763        C764   1.408       .  A
C764       Br765   1.930       .  S
C769        C770   1.405       .  A
C769        C774   1.409       .  A
C769       Br776   1.933       .  S
C770        C771   1.405       .  A
C771        C772   1.402       .  A
C771       Br778   1.929       .  S
C772        C773   1.418       .  A
C772       Br777   1.937       .  S
C773        C774   1.422       .  A
C774       Br775   1.932       .  S
C779        C780   1.416       .  A
C779        C784   1.402       .  A
C779       Br786   1.930       .  S
C780        C781   1.415       .  A
C781        C782   1.409       .  A
C781       Br788   1.931   1_565  S
C782        C783   1.406       .  A
C782       Br787   1.929       .  S
C783        C784   1.405       .  A
C784       Br785   1.934       .  S
C789        C790   1.408       .  A
C789        C794   1.405       .  A
C790        C791   1.408       .  A
C791        C792   1.407       .  A
C791       Br798   1.929       .  S
C792        C793   1.408       .  A
C792       Br797   1.929       .  S
C793        C794   1.410       .  A
C794       Br795   1.930       .  S
C799        C800   1.407       .  A
C799        C804   1.405       .  A
C799       Br806   1.929       .  S
C800        C801   1.406       .  A
C801        C802   1.404       .  A
C801       Br808   1.931       .  S
C802        C803   1.409       .  A
C802       Br807   1.929       .  S
C803        C804   1.408       .  A
C804       Br805   1.929       .  S
