geometry optimzed in LAMMPS
_audit_creation_date              2020-11-30 
_audit_creation_method            'lammps2cif' 
_symmetry_space_group_name_H-M    'P1' 
_symmetry_Int_Tables_number       1 
_symmetry_cell_setting            triclinic 
loop_ 
_symmetry_equiv_pos_as_xyz 
  x,y,z 
_cell_length_a                    46.54801454 
_cell_length_b                    46.81689941611747 
_cell_length_c                    46.72856485391946 
_cell_angle_alpha                 90.05999406182531 
_cell_angle_beta                  89.85891465404748 
_cell_angle_gamma                 90.0193001172656 
loop_ 
_atom_site_label 
_atom_site_type_symbol 
_atom_site_fract_x 
_atom_site_fract_y 
_atom_site_fract_z 
_atom_site_charge 
Zn1        Zn  0.01593097  0.00141757  0.95766945     1.49700
Zn2        Zn  0.96327579  0.01343087  0.00097739     1.49400
Zn3        Zn  0.00554340  0.96090143  0.01245018     1.49100
Zn4        Zn  0.02750874  0.02480054  0.02101424     1.49500
O5          O  0.00303160  0.00011757  0.99784897    -1.84100
O6          O  0.98348412  0.01507615  0.93207659    -0.74700
O7          O  0.93810206  0.98269909  0.01817558    -0.74500
O8          O  0.01919256  0.93425636  0.98161155    -0.74100
O9          O  0.94770781  0.02439588  0.96205289    -0.74700
O10         O  0.02910025  0.96206985  0.94444170    -0.74300
O11         O  0.96722970  0.94668461  0.02795517    -0.74900
O12         O  0.05155016  0.00183758  0.04847519    -0.74300
O13         O  0.95977390  0.04772595  0.02723907    -0.75100
O14         O  0.03540378  0.95771767  0.04331782    -0.74500
O15         O  0.00414099  0.05388088  0.04320318    -0.74900
O16         O  0.05528985  0.04615012  0.99617543    -0.74800
O17         O  0.04915206  0.02923560  0.95233800    -0.74600
C18         C  0.95791148  0.02380776  0.93673738     0.77200
C19         C  0.94225139  0.95779301  0.02840646     0.77700
C20         C  0.02882889  0.93752873  0.95633022     0.76600
C21         C  0.05238087  0.97544340  0.05504111     0.77000
C22         C  0.97767528  0.06081599  0.04313703     0.78100
C23         C  0.06198576  0.04583484  0.96978971     0.77200
C24         C  0.05634566  0.34465239  0.11771811     0.03200
C25         C  0.08293639  0.33993788  0.13116478    -0.13000
C26         C  0.08815507  0.31394282  0.14524769     0.00700
C27         C  0.06658880  0.29310480  0.14612946    -0.11500
C28         C  0.04097975  0.29658366  0.13085864     0.03200
C29         C  0.03600618  0.32255671  0.11682470    -0.10900
H30         H  0.09943001  0.35622336  0.13052122     0.08800
H31         H  0.07021345  0.27370464  0.15824849     0.06300
H32         H  0.01647238  0.32550257  0.10462721     0.06100
C33         C  0.94069614  0.15885283  0.10958365     0.03200
C34         C  0.96022595  0.18168227  0.10932100    -0.13000
C35         C  0.95620606  0.20558278  0.12715292     0.00700
C36         C  0.93250961  0.20590138  0.14565534    -0.11500
C37         C  0.91151354  0.18456545  0.14436275     0.03200
C38         C  0.91562719  0.16081410  0.12637336    -0.10900
H39         H  0.97869120  0.18053596  0.09522200     0.08800
H40         H  0.92987850  0.22315757  0.16087699     0.06300
H41         H  0.89983146  0.14381440  0.12591721     0.06100
C42         C  0.81227908  0.14538718  0.41073665     0.03200
C43         C  0.79235545  0.14479685  0.43326961    -0.13000
C44         C  0.79693917  0.12738321  0.45727618     0.00700
C45         C  0.82286323  0.11222142  0.45928989    -0.11500
C46         C  0.84364604  0.11403841  0.43762773     0.03200
C47         C  0.83811866  0.13016598  0.41300286    -0.10900
H48         H  0.77306573  0.15762247  0.43176855     0.08800
H49         H  0.82698948  0.09878776  0.47771519     0.06300
H50         H  0.85376085  0.13090581  0.39581874     0.06100
C51         C  0.66649917  0.10053406  0.56595677     0.03200
C52         C  0.66943684  0.11638893  0.59139506    -0.13000
C53         C  0.69379300  0.13368426  0.59543567     0.00700
C54         C  0.71447017  0.13580827  0.57372329    -0.11500
C55         C  0.71277381  0.11879424  0.54907788     0.03200
C56         C  0.68871341  0.10101411  0.54561584    -0.10900
H57         H  0.65262162  0.11596654  0.60745227     0.08800
H58         H  0.73184226  0.15098887  0.57616251     0.06300
H59         H  0.68668690  0.08794191  0.52656736     0.06100
Zn60       Zn  0.74889092  0.23945866  0.20974857     1.49700
Zn61       Zn  0.72685703  0.22679173  0.27353832     1.49400
Zn62       Zn  0.79056403  0.24958540  0.26288053     1.49100
Zn63       Zn  0.73657175  0.29151986  0.25234637     1.49500
O64         O  0.75063307  0.25193359  0.24970563    -1.84100
O65         O  0.72220879  0.20600432  0.20514279    -0.74700
O66         O  0.75045724  0.20702378  0.30411821    -0.74500
O67         O  0.81678808  0.23291088  0.23248186    -0.74100
O68         O  0.70714460  0.19683749  0.24928076    -0.74700
O69         O  0.78768784  0.22638364  0.19559687    -0.74300
O70         O  0.79421955  0.22487664  0.29783490    -0.74900
O71         O  0.76796006  0.31720144  0.26817584    -0.74300
O72         O  0.69584242  0.24942994  0.29369291    -0.75100
O73         O  0.80500279  0.28822050  0.27452497    -0.74500
O74         O  0.70225738  0.29409960  0.27917441    -0.74900
O75         O  0.72357505  0.30651661  0.21336280    -0.74800
O76         O  0.73361908  0.27070618  0.18408572    -0.74600
C77         C  0.70727228  0.19130980  0.22255049     0.77200
C78         C  0.77669184  0.20916958  0.31156499     0.77700
C79         C  0.81249766  0.22465177  0.20683285     0.76600
C80         C  0.79385807  0.31294730  0.27607445     0.77000
C81         C  0.68861883  0.27566808  0.29400554     0.78100
C82         C  0.72367584  0.29569245  0.18826129     0.77200
C83         C  0.80690607  0.64096376  0.58464812     0.03200
C84         C  0.83278970  0.62585897  0.58086978    -0.13000
C85         C  0.83745406  0.60977437  0.55583344     0.00700
C86         C  0.81518681  0.60703283  0.53585619    -0.11500
C87         C  0.78950536  0.62234199  0.53900597     0.03200
C88         C  0.78598187  0.63993476  0.56305670    -0.10900
H89         H  0.84921930  0.62666561  0.59721429     0.08800
H90         H  0.81814663  0.59321140  0.51746107     0.06300
H91         H  0.76675521  0.65279590  0.56520996     0.06100
C92         C  0.65749852  0.60091306  0.43196348     0.03200
C93         C  0.67998682  0.60016993  0.45179968    -0.13000
C94         C  0.70362553  0.61859518  0.44922704     0.00700
C95         C  0.70449802  0.63774163  0.42621562    -0.11500
C96         C  0.68316851  0.63737173  0.40512150     0.03200
C97         C  0.65946656  0.61895593  0.40801398    -0.10900
H98         H  0.67851436  0.58566831  0.46981043     0.08800
H99         H  0.72186393  0.65304151  0.42450593     0.06300
H100        H  0.64241414  0.61926642  0.39228209     0.06100
Zn101      Zn  0.97755399  0.52574268  0.47757973     1.49700
Zn102      Zn  0.99836399  0.46137002  0.48951463     1.49400
Zn103      Zn  0.04140453  0.51337924  0.49839719     1.49100
Zn104      Zn  0.98797352  0.50376351  0.54177617     1.49500
O105        O  0.00128457  0.50118596  0.50186862    -1.84100
O106        O  0.95528033  0.50179063  0.44906926    -0.74700
O107        O  0.03620872  0.44620838  0.47448119    -0.74500
O108        O  0.04545667  0.54865429  0.47389400    -0.74100
O109        O  0.96912065  0.45754325  0.45854684    -0.74700
O110        O  0.00166478  0.55577779  0.45679613    -0.74300
O111        O  0.06595936  0.48284167  0.48004406    -0.74900
O112        O  0.02014147  0.51793018  0.56677983    -0.74300
O113        O  0.98454245  0.43578272  0.52117361    -0.75100
O114        O  0.05754535  0.52233708  0.53730750    -0.74500
O115        O  0.97503636  0.46516604  0.55717995    -0.74900
O116        O  0.95447052  0.53102540  0.54579964    -0.74800
O117        O  0.94792607  0.54639546  0.50151532    -0.74600
C118        C  0.95377941  0.47495463  0.44446341     0.77200
C119        C  0.06102139  0.45739979  0.47176512     0.77700
C120        C  0.02815209  0.56274805  0.45831739     0.76600
C121        C  0.04651309  0.52371247  0.56224080     0.77000
C122        C  0.97516536  0.44014507  0.54638184     0.78100
C123        C  0.94081132  0.54627447  0.52788718     0.77200
C124        C  0.43701060  0.84358778  0.10672761     0.03200
C125        C  0.41065541  0.84084874  0.12123690    -0.13000
C126        C  0.40609463  0.81744532  0.13949324     0.00700
C127        C  0.42779919  0.79714793  0.14325085    -0.11500
C128        C  0.45393398  0.79952691  0.12860867     0.03200
C129        C  0.45811400  0.82252668  0.10989450    -0.10900
H130        H  0.39423535  0.85706925  0.11893579     0.08800
H131        H  0.42425652  0.77946208  0.15781458     0.06300
H132        H  0.47794921  0.82427823  0.09784438     0.06100
C133        C  0.55875661  0.66698832  0.10962487     0.03200
C134        C  0.58473384  0.67032526  0.12438966    -0.13000
C135        C  0.58897339  0.69435258  0.14173609     0.00700
C136        C  0.56664732  0.71401447  0.14572168    -0.11500
C137        C  0.54082598  0.71134835  0.13050705     0.03200
C138        C  0.53774753  0.68834040  0.11149036    -0.10900
H139        H  0.60168954  0.65465103  0.12196975     0.08800
H140        H  0.56982758  0.73171269  0.16034874     0.06300
H141        H  0.51881275  0.68672073  0.09821178     0.06100
C142        C  0.10988953  0.06014874  0.33813803     0.03200
C143        C  0.11210880  0.04026315  0.31577529    -0.13000
C144        C  0.12743624  0.04695606  0.29088528     0.00700
C145        C  0.14011015  0.07381685  0.28803812    -0.11500
C146        C  0.13795460  0.09407755  0.30999310     0.03200
C147        C  0.12320141  0.08708388  0.33541118    -0.10900
H148        H  0.10194893  0.01951210  0.31779162     0.08800
H149        H  0.15167592  0.07903268  0.26853848     0.06300
H150        H  0.12158823  0.10257558  0.35256655     0.06100
C151        C  0.15072470  0.91735969  0.18425738     0.03200
C152        C  0.14828435  0.93859501  0.20525250    -0.13000
C153        C  0.13420048  0.96437219  0.19943195     0.00700
C154        C  0.12292336  0.96889822  0.17206514    -0.11500
C155        C  0.12477613  0.94768091  0.15085028     0.03200
C156        C  0.13844636  0.92166329  0.15719838    -0.10900
H157        H  0.15716480  0.93483547  0.22634616     0.08800
H158        H  0.11232563  0.98892928  0.16731826     0.06300
H159        H  0.13986233  0.90504412  0.14110837     0.06100
Zn160      Zn  0.27456220  0.73094155  0.22565830     1.49700
Zn161      Zn  0.26386712  0.79383681  0.25129237     1.49400
Zn162      Zn  0.21052491  0.75243250  0.23895952     1.49100
Zn163      Zn  0.25371953  0.73895538  0.28980924     1.49500
O164        O  0.25071993  0.75409180  0.25123442    -1.84100
O165        O  0.30107077  0.75634511  0.20246553    -0.74700
O166        O  0.23286384  0.81964871  0.23599456    -0.74500
O167        O  0.20524151  0.72396945  0.20703551    -0.74100
O168        O  0.29704638  0.79851093  0.22419710    -0.74700
O169        O  0.24936489  0.70835758  0.19851494    -0.74300
O170        O  0.19668306  0.79098488  0.22486670    -0.74900
O171        O  0.21590847  0.72483456  0.30448667    -0.74300
O172        O  0.27687204  0.80722970  0.29074298    -0.75100
O173        O  0.18517852  0.73836042  0.27104674    -0.74500
O174        O  0.26824411  0.76867576  0.31669086    -0.74900
O175        O  0.28175080  0.70672450  0.29226057    -0.74800
O176        O  0.29915515  0.70269837  0.24820514    -0.74600
C177        C  0.30843965  0.78241760  0.20537294     0.77200
C178        C  0.20794352  0.81577461  0.22539286     0.77700
C179        C  0.22245316  0.70787607  0.19334217     0.76600
C180        C  0.19038214  0.72678697  0.29517463     0.77000
C181        C  0.27742768  0.79412161  0.31465674     0.78100
C182        C  0.29884288  0.69517216  0.27444297     0.77200
Zn183      Zn  0.23817660  0.28895960  0.24518608     1.49700
Zn184      Zn  0.29115252  0.24786848  0.23301670     1.49400
Zn185      Zn  0.25076728  0.23627285  0.28687748     1.49100
Zn186      Zn  0.22654684  0.22506319  0.22344338     1.49500
O187        O  0.25152804  0.24939785  0.24703727    -1.84100
O188        O  0.26913377  0.31491844  0.23030697    -0.74700
O189        O  0.31703884  0.22899560  0.26205525    -0.74500
O190        O  0.23695679  0.26770239  0.31305454    -0.74100
O191        O  0.30665585  0.28702101  0.22245189    -0.74700
O192        O  0.22531385  0.30324047  0.28392966    -0.74300
O193        O  0.28954782  0.22116054  0.29990390    -0.74900
O194        O  0.20518566  0.19615329  0.24835789    -0.74300
O195        O  0.29364682  0.22377177  0.19776302    -0.75100
O196        O  0.22247857  0.20423483  0.29184908    -0.74500
O197        O  0.25033484  0.20415553  0.19330898    -0.74900
O198        O  0.19671179  0.24911910  0.20263343    -0.74800
O199        O  0.20480827  0.29306222  0.21841483    -0.74600
C200        C  0.29500182  0.31161063  0.22200111     0.77200
C201        C  0.31383143  0.21936599  0.28732122     0.77700
C202        C  0.22630854  0.29240176  0.30890434     0.76600
C203        C  0.20603057  0.19048849  0.27507814     0.77000
C204        C  0.27636158  0.20700335  0.18509225     0.78100
C205        C  0.19072229  0.27570342  0.20288138     0.77200
C206        C  0.56082950  0.83266640  0.60416719     0.03200
C207        C  0.54054030  0.81104153  0.59985114    -0.13000
C208        C  0.54229619  0.78514393  0.61483491     0.00700
C209        C  0.56552307  0.78099847  0.63365349    -0.11500
C210        C  0.58676524  0.80213791  0.63691376     0.03200
C211        C  0.58390955  0.82827816  0.62271529    -0.10900
H212        H  0.52301829  0.81476307  0.58509001     0.08800
H213        H  0.56708446  0.76153094  0.64603672     0.06300
H214        H  0.59988824  0.84488217  0.62559066     0.06100
C215        C  0.42886620  0.65633728  0.60062804     0.03200
C216        C  0.40474129  0.66148443  0.61819330    -0.13000
C217        C  0.40233618  0.68742602  0.63349903     0.00700
C218        C  0.42470933  0.70756139  0.63141812    -0.11500
C219        C  0.44833112  0.70316652  0.61314216     0.03200
C220        C  0.45004826  0.67745135  0.59784203    -0.10900
H221        H  0.38785891  0.64561560  0.61954974     0.08800
H222        H  0.42372402  0.72670506  0.64441082     0.06300
H223        H  0.46822460  0.67351260  0.58385255     0.06100
Zn224      Zn  0.52580067  0.02130397  0.47898794     1.49700
Zn225      Zn  0.46211877  0.00774546  0.50137049     1.49400
Zn226      Zn  0.50546803  0.95680862  0.48863926     1.49100
Zn227      Zn  0.51648634  0.99832523  0.54232022     1.49500
O228        O  0.50248789  0.99604456  0.50280101    -1.84100
O229        O  0.50064611  0.05044939  0.45913207    -0.74700
O230        O  0.43606826  0.97509598  0.48954735    -0.74500
O231        O  0.53088163  0.95434063  0.45370912    -0.74100
O232        O  0.45634308  0.03924592  0.47273518    -0.74700
O233        O  0.54567168  0.99896748  0.44777693    -0.74300
O234        O  0.46659735  0.94036097  0.47863548    -0.74900
O235        O  0.52766320  0.95954053  0.55681355    -0.74300
O236        O  0.44931963  0.02291691  0.53972978    -0.75100
O237        O  0.52225022  0.93151947  0.51885328    -0.74500
O238        O  0.48638227  0.01512885  0.56833007    -0.74900
O239        O  0.55144925  0.02350864  0.54595487    -0.74800
O240        O  0.55674781  0.04111630  0.50233069    -0.74600
C241        C  0.47355261  0.05446765  0.45807505     0.77200
C242        C  0.44103527  0.94981769  0.48065462     0.77700
C243        C  0.54543140  0.97286796  0.44001698     0.76600
C244        C  0.52934313  0.93515535  0.54490192     0.77000
C245        C  0.46096415  0.02434882  0.56429933     0.78100
C246        C  0.56465268  0.03962159  0.52838279     0.77200
C247        C  0.30804433  0.35925444  0.58902005     0.03200
C248        C  0.28676779  0.35863255  0.56783216    -0.13000
C249        C  0.28988507  0.37458272  0.54263585     0.00700
C250        C  0.31553346  0.38968335  0.53820631    -0.11500
C251        C  0.33807120  0.38800073  0.55791902     0.03200
C252        C  0.33390783  0.37364169  0.58387665    -0.10900
H253        H  0.26787936  0.34550215  0.57104985     0.08800
H254        H  0.31837723  0.40234896  0.51901854     0.06300
H255        H  0.35100242  0.37283956  0.59956005     0.06100
C256        C  0.18697969  0.35780970  0.40611054     0.03200
C257        C  0.20703416  0.35655417  0.42831421    -0.13000
C258        C  0.20436507  0.37414683  0.45243172     0.00700
C259        C  0.17965147  0.39110788  0.45528866    -0.11500
C260        C  0.15805893  0.39054163  0.43450139     0.03200
C261        C  0.16208287  0.37454112  0.40932644    -0.10900
H262        H  0.22501157  0.34199259  0.42644677     0.08800
H263        H  0.17684924  0.40463879  0.47391053     0.06300
H264        H  0.14593095  0.37478523  0.39268423     0.06100
C265        C  0.58405620  0.30676411  0.35388426     0.03200
C266        C  0.56255098  0.28572724  0.35416849    -0.13000
C267        C  0.53717495  0.28950643  0.37017588     0.00700
C268        C  0.53366646  0.31473564  0.38587981    -0.11500
C269        C  0.55423454  0.33645425  0.38464048     0.03200
C270        C  0.57962545  0.33242805  0.36887297    -0.10900
H271        H  0.56589634  0.26616267  0.34219045     0.08800
H272        H  0.51515481  0.31741869  0.39970369     0.06300
H273        H  0.59601028  0.34887030  0.36875561     0.06100
C274        C  0.43829306  0.14835377  0.38670297     0.03200
C275        C  0.41464274  0.15125091  0.36821426    -0.13000
C276        C  0.41036774  0.17701175  0.35322814     0.00700
C277        C  0.43104642  0.19876096  0.35573531    -0.11500
C278        C  0.45476943  0.19618477  0.37406569     0.03200
C279        C  0.45728666  0.17131667  0.39051683    -0.10900
H280        H  0.39996750  0.13354124  0.36535701     0.08800
H281        H  0.42848038  0.21804556  0.34322695     0.06300
H282        H  0.47418304  0.16948715  0.40625914     0.06100
C283        C  0.63922161  0.58782838  0.80691746     0.03200
C284        C  0.64074853  0.56571052  0.78670433    -0.13000
C285        C  0.62613689  0.53998755  0.79104455     0.00700
C286        C  0.61054842  0.53592443  0.81644344    -0.11500
C287        C  0.60901049  0.55772884  0.83703770     0.03200
C288        C  0.62321018  0.58375955  0.83214795    -0.10900
H289        H  0.65285828  0.56879605  0.76709403     0.08800
H290        H  0.59954664  0.51585254  0.82016515     0.06300
H291        H  0.62128668  0.60089543  0.84763024     0.06100
C292        C  0.61244539  0.43612949  0.65656732     0.03200
C293        C  0.62815576  0.41074256  0.66064462    -0.13000
C294        C  0.64467312  0.40713816  0.68557586     0.00700
C295        C  0.64543443  0.42880811  0.70621479    -0.11500
C296        C  0.63065065  0.45445903  0.70193492     0.03200
C297        C  0.61448731  0.45805360  0.67695546    -0.10900
H298        H  0.62706541  0.39376161  0.64492536     0.08800
H299        H  0.65720327  0.42541954  0.72592060     0.06300
H300        H  0.60308228  0.47794146  0.67351549     0.06100
Zn301      Zn  0.48641275  0.49254629  0.53811025     1.49700
Zn302      Zn  0.49592465  0.53466055  0.48565218     1.49400
Zn303      Zn  0.53762023  0.48026785  0.49431110     1.49100
Zn304      Zn  0.47297505  0.47198240  0.47354823     1.49500
O305        O  0.49827278  0.49486233  0.49789863    -1.84100
O306        O  0.47125120  0.53053451  0.55311841    -0.74700
O307        O  0.53504229  0.54841958  0.47319575    -0.74500
O308        O  0.55347801  0.46798631  0.53279620    -0.74100
O309        O  0.47970638  0.55989973  0.51695900    -0.74700
O310        O  0.51856266  0.47804046  0.56338323    -0.74300
O311        O  0.56351781  0.51036362  0.47710547    -0.74900
O312        O  0.49519382  0.44220120  0.45154980    -0.74300
O313        O  0.46895215  0.53964794  0.45229480    -0.75100
O314        O  0.53966533  0.44635875  0.46797209    -0.74500
O315        O  0.45173553  0.49626383  0.44483473    -0.74900
O316        O  0.44381280  0.45148350  0.49762174    -0.74800
O317        O  0.45424086  0.46467082  0.54196867    -0.74600
C318        C  0.47000462  0.55538030  0.54209965     0.77200
C319        C  0.55946112  0.53640517  0.47034937     0.77700
C320        C  0.54369830  0.46841692  0.55826222     0.76600
C321        C  0.52134206  0.43428218  0.45182899     0.77000
C322        C  0.45244402  0.52272954  0.43873216     0.78100
C323        C  0.43905735  0.45048126  0.52446212     0.77200
C324        C  0.31471305  0.13975425  0.08933089     0.03200
C325        C  0.29423201  0.13948940  0.06747210    -0.13000
C326        C  0.29717721  0.12116877  0.04389854     0.00700
C327        C  0.32237774  0.10490879  0.04135776    -0.11500
C328        C  0.34418863  0.10695439  0.06183982     0.03200
C329        C  0.34012113  0.12388705  0.08632702    -0.10900
H330        H  0.27577198  0.15343893  0.06919736     0.08800
H331        H  0.32536691  0.09074884  0.02322691     0.06300
H332        H  0.35645252  0.12468098  0.10278405     0.06100
C333        C  0.19451319  0.13976861  0.90851891     0.03200
C334        C  0.21521911  0.13854504  0.93012770    -0.13000
C335        C  0.21101570  0.12148184  0.95439088     0.00700
C336        C  0.18483159  0.10695106  0.95756599    -0.11500
C337        C  0.16324164  0.10916001  0.93680339     0.03200
C338        C  0.16826613  0.12534534  0.91197300    -0.10900
H339        H  0.23467332  0.15105885  0.92791408     0.08800
H340        H  0.18108826  0.09378660  0.97628293     0.06300
H341        H  0.15189526  0.12684099  0.89560648     0.06100
C342        C  0.14590377  0.40921827  0.81746645     0.03200
C343        C  0.14848637  0.43079748  0.79693097    -0.13000
C344        C  0.13194910  0.45574886  0.79880875     0.00700
C345        C  0.11322491  0.45906992  0.82215592    -0.11500
C346        C  0.11209229  0.43870480  0.84419159     0.03200
C347        C  0.12806919  0.41331349  0.84140593    -0.10900
H348        H  0.16286641  0.42759875  0.77893422     0.08800
H349        H  0.09937373  0.47760709  0.82328455     0.06300
H350        H  0.12613667  0.39663470  0.85734722     0.06100
C351        C  0.11354967  0.55525319  0.66055891     0.03200
C352        C  0.11450919  0.53447487  0.68207713    -0.13000
C353        C  0.13226669  0.53806824  0.70602022     0.00700
C354        C  0.14814069  0.56339960  0.70862909    -0.11500
C355        C  0.14587677  0.58510160  0.68817088     0.03200
C356        C  0.12891098  0.58082587  0.66377285    -0.10900
H357        H  0.10116859  0.51561963  0.68012057     0.08800
H358        H  0.16190566  0.56663845  0.72702607     0.06300
H359        H  0.12776368  0.59717349  0.64741117     0.06100
Zn360      Zn  0.26737340  0.29258681  0.75403835     1.49700
Zn361      Zn  0.21542554  0.24877320  0.76528118     1.49400
Zn362      Zn  0.25658115  0.23837243  0.71299084     1.49100
Zn363      Zn  0.28113804  0.22945374  0.77607229     1.49500
O364        O  0.25523210  0.25237212  0.75231222    -1.84100
O365        O  0.23598433  0.31691322  0.77168261    -0.74700
O366        O  0.18936041  0.23278399  0.73446535    -0.74500
O367        O  0.27056726  0.26910779  0.68728169    -0.74100
O368        O  0.19978536  0.28664057  0.77881796    -0.74700
O369        O  0.27812386  0.30712415  0.71446884    -0.74300
O370        O  0.21845272  0.22431072  0.69811305    -0.74900
O371        O  0.30339140  0.20092046  0.75190685    -0.74300
O372        O  0.21314913  0.22169345  0.79835951    -0.75100
O373        O  0.28391503  0.20594149  0.70879175    -0.74500
O374        O  0.25809287  0.20729320  0.80552795    -0.74900
O375        O  0.31001410  0.25457117  0.79665504    -0.74800
O376        O  0.30202978  0.29791690  0.77933283    -0.74600
C377        C  0.21064744  0.31154568  0.78060371     0.77200
C378        C  0.19348600  0.22342499  0.70921355     0.77700
C379        C  0.27866048  0.29483596  0.69007625     0.76600
C380        C  0.30126646  0.19368451  0.72570227     0.77000
C381        C  0.23140315  0.20656679  0.81174817     0.78100
C382        C  0.31621409  0.28108169  0.79528723     0.77200
Zn383      Zn  0.46192097  0.98613398  0.99613111     1.49700
Zn384      Zn  0.50433283  0.03884786  0.00863559     1.49400
Zn385      Zn  0.52582546  0.97600366  0.02060181     1.49100
Zn386      Zn  0.51601324  0.99714547  0.95563812     1.49500
O387        O  0.50200724  0.99934354  0.99519373    -1.84100
O388        O  0.43634620  0.01712512  0.01251307    -0.74700
O389        O  0.53108914  0.04378436  0.04190032    -0.74500
O390        O  0.50122812  0.94700259  0.04100309    -0.74100
O391        O  0.46604427  0.05309669  0.02185818    -0.74700
O392        O  0.45761746  0.95240832  0.02260621    -0.74300
O393        O  0.54657982  0.00003903  0.05074282    -0.74900
O394        O  0.55018688  0.97096015  0.95327900    -0.74300
O395        O  0.51919283  0.06448421  0.97794727    -0.75100
O396        O  0.55554231  0.95437073  0.99760272    -0.74500
O397        O  0.52877192  0.03603266  0.94128496    -0.74900
O398        O  0.48560599  0.98080039  0.92900952    -0.74800
O399        O  0.44779455  0.97336970  0.95681288    -0.74600
C400        C  0.44110087  0.04202681  0.02252445     0.77200
C401        C  0.54624210  0.02668748  0.05655493     0.77700
C402        C  0.47487400  0.93983936  0.03952642     0.76600
C403        C  0.56297352  0.95514308  0.97135144     0.77000
C404        C  0.52868435  0.06076388  0.95266436     0.78100
C405        C  0.45991009  0.97197785  0.93230815     0.77200
C406        C  0.85816651  0.41090912  0.31555965     0.03200
C407        C  0.86195918  0.43106259  0.29380439    -0.13000
C408        C  0.87672720  0.45652607  0.29901072     0.00700
C409        C  0.88778523  0.46176309  0.32629018    -0.11500
C410        C  0.88451070  0.44167133  0.34831466     0.03200
C411        C  0.86999292  0.41587700  0.34276236    -0.10900
H412        H  0.85303103  0.42700261  0.27276705     0.08800
H413        H  0.89891674  0.48167152  0.33046147     0.06300
H414        H  0.86736740  0.40016406  0.35956317     0.06100
C415        C  0.89299702  0.56006683  0.16491346     0.03200
C416        C  0.87717311  0.58528287  0.16927145    -0.13000
C417        C  0.86341359  0.59019874  0.19568692     0.00700
C418        C  0.86521413  0.56936838  0.21718209    -0.11500
C419        C  0.88009741  0.54384369  0.21247204     0.03200
C420        C  0.89440987  0.53947327  0.18654451    -0.10900
H421        H  0.87542230  0.60078297  0.15216727     0.08800
H422        H  0.85445648  0.57273891  0.23752409     0.06300
H423        H  0.90607713  0.51975911  0.18291512     0.06100
C424        C  0.63769809  0.09557792  0.18717181     0.03200
C425        C  0.63683242  0.07476495  0.20865577    -0.13000
C426        C  0.62319029  0.04858819  0.20409181     0.00700
C427        C  0.61082141  0.04286494  0.17744022    -0.11500
C428        C  0.61185336  0.06311720  0.15533747     0.03200
C429        C  0.62523666  0.08971164  0.16031734    -0.10900
H430        H  0.64691842  0.07898688  0.22912295     0.08800
H431        H  0.60053089  0.02241191  0.17377080     0.06300
H432        H  0.62604108  0.10558726  0.14348411     0.06100
C433        C  0.61146989  0.94502720  0.33863999     0.03200
C434        C  0.61142539  0.96625639  0.31755033    -0.13000
C435        C  0.62600441  0.96215496  0.29173202     0.00700
C436        C  0.64007985  0.93624814  0.28651388    -0.11500
C437        C  0.63898257  0.91395337  0.30659020     0.03200
C438        C  0.62489316  0.91863501  0.33294823    -0.10900
H439        H  0.60021387  0.98620429  0.32135776     0.08800
H440        H  0.65159724  0.93332991  0.26653475     0.06300
H441        H  0.62431857  0.90186686  0.34890224     0.06100
C442        C  0.09157415  0.69031129  0.36008544     0.03200
C443        C  0.07061699  0.71180029  0.36075876    -0.13000
C444        C  0.04681656  0.70973687  0.37900244     0.00700
C445        C  0.04360155  0.68506654  0.39580078    -0.11500
C446        C  0.06331266  0.66253816  0.39391666     0.03200
C447        C  0.08793708  0.66557803  0.37675984    -0.10900
H448        H  0.07287535  0.73005623  0.34674585     0.08800
H449        H  0.02514776  0.68282681  0.40981160     0.06300
H450        H  0.10365161  0.64853250  0.37570319     0.06100
C451        C  0.93468209  0.83781506  0.39608760     0.03200
C452        C  0.95654969  0.81725574  0.39587948    -0.13000
C453        C  0.95456503  0.79299359  0.37834523     0.00700
C454        C  0.93035779  0.78967837  0.36085942    -0.11500
C455        C  0.90750528  0.80901461  0.36244259     0.03200
C456        C  0.90971841  0.83330517  0.37989131    -0.10900
H457        H  0.97534338  0.82046504  0.40914965     0.08800
H458        H  0.92899182  0.77180393  0.34618539     0.06300
H459        H  0.89236806  0.84872113  0.38057878     0.06100
C460        C  0.81270833  0.86107335  0.09206362     0.03200
C461        C  0.83699519  0.87861079  0.08864928    -0.13000
C462        C  0.84050519  0.89485806  0.06351134     0.00700
C463        C  0.81949101  0.89314330  0.04200819    -0.11500
C464        C  0.79567824  0.87494451  0.04474831     0.03200
C465        C  0.79257591  0.85899529  0.06996728    -0.10900
H466        H  0.85273449  0.88000845  0.10564164     0.08800
H467        H  0.82180883  0.90605294  0.02297071     0.06300
H468        H  0.77428789  0.84490952  0.07265108     0.06100
C469        C  0.68902035  0.85316716  0.91181660     0.03200
C470        C  0.66342873  0.86862392  0.91550259    -0.13000
C471        C  0.65946647  0.88527141  0.94018108     0.00700
C472        C  0.68117955  0.88670071  0.96080446    -0.11500
C473        C  0.70602119  0.86992896  0.95833476     0.03200
C474        C  0.70979932  0.85332777  0.93351565    -0.10900
H475        H  0.64713431  0.86836187  0.89897496     0.08800
H476        H  0.67860272  0.90108961  0.97878663     0.06300
H477        H  0.72907394  0.84064485  0.93077899     0.06100
Zn478      Zn  0.72581525  0.77581884  0.22614575     1.49700
Zn479      Zn  0.78982461  0.75281275  0.23793008     1.49400
Zn480      Zn  0.74508441  0.76344886  0.29062472     1.49100
Zn481      Zn  0.73641164  0.71182079  0.24716699     1.49500
O482        O  0.74941187  0.75120803  0.25052502    -1.84100
O483        O  0.75062177  0.79606212  0.19708511    -0.74700
O484        O  0.81417769  0.76780516  0.27024293    -0.74500
O485        O  0.71880752  0.79796051  0.29405459    -0.74100
O486        O  0.79480557  0.77973377  0.20420495    -0.74700
O487        O  0.70505507  0.80607093  0.24948488    -0.74300
O488        O  0.78393899  0.77406054  0.30672916    -0.74900
O489        O  0.72157546  0.69665618  0.28454253    -0.74300
O490        O  0.80539555  0.71353289  0.22657567    -0.75100
O491        O  0.72804607  0.73198480  0.31538326    -0.74500
O492        O  0.76778188  0.68570149  0.23381103    -0.74900
O493        O  0.70447389  0.70843346  0.21917791    -0.74800
O494        O  0.69594567  0.75270377  0.20476865    -0.74600
C495        C  0.77725529  0.79573143  0.19077155     0.77200
C496        C  0.80919364  0.77488688  0.29613346     0.77700
C497        C  0.70442525  0.81245057  0.27603178     0.76600
C498        C  0.71980335  0.70660798  0.30979499     0.77000
C499        C  0.79382383  0.68881557  0.22631596     0.78100
C500        C  0.69011692  0.72608921  0.20442021     0.77200
C501        C  0.36558460  0.59720500  0.30813413     0.03200
C502        C  0.37820525  0.59084917  0.33474707    -0.13000
C503        C  0.39103425  0.56397076  0.33935316     0.00700
C504        C  0.39040802  0.54352503  0.31739922    -0.11500
C505        C  0.37714575  0.54945806  0.29130207     0.03200
C506        C  0.36534567  0.57648106  0.28649499    -0.10900
H507        H  0.37762629  0.60652899  0.35180783     0.08800
H508        H  0.39983750  0.52263469  0.32080349     0.06300
H509        H  0.35513805  0.58108760  0.26617666     0.06100
C510        C  0.35435064  0.41507131  0.18817470     0.03200
C511        C  0.36684217  0.42080261  0.16133879    -0.13000
C512        C  0.38086089  0.44702022  0.15646545     0.00700
C513        C  0.38203960  0.46728155  0.17850554    -0.11500
C514        C  0.37031662  0.46146616  0.20544349     0.03200
C515        C  0.35625760  0.43545313  0.21013754    -0.10900
H516        H  0.36538413  0.40512786  0.14433479     0.08800
H517        H  0.39261287  0.48759667  0.17482196     0.06300
H518        H  0.34692908  0.43096597  0.23094047     0.06100
Zn519      Zn  0.49479224  0.46907945  0.01590606     1.49700
Zn520      Zn  0.47372908  0.53329389  0.02457423     1.49400
Zn521      Zn  0.53837356  0.52086194  0.00347785     1.49100
Zn522      Zn  0.48625514  0.50940639  0.96148632     1.49500
O523        O  0.49829977  0.50817975  0.00148508    -1.84100
O524        O  0.46527653  0.46665758  0.04746317    -0.74700
O525        O  0.49761861  0.56267719  0.04531665    -0.74500
O526        O  0.56311394  0.49049290  0.02144777    -0.74100
O527        O  0.44979211  0.51099488  0.05339511    -0.74700
O528        O  0.53307001  0.45476864  0.03081390    -0.74300
O529        O  0.54180344  0.55576220  0.02816135    -0.74900
O530        O  0.51807679  0.52263502  0.93542200    -0.74300
O531        O  0.44608187  0.55453461  0.99929431    -0.75100
O532        O  0.55472746  0.53065227  0.96436788    -0.74500
O533        O  0.45311011  0.53591675  0.95603524    -0.74900
O534        O  0.47360026  0.47091755  0.94788261    -0.74800
O535        O  0.48096780  0.44233473  0.98493587    -0.74600
C536        C  0.44879930  0.48457068  0.05982740     0.77200
C537        C  0.52408485  0.56940811  0.04376247     0.77700
C538        C  0.55817167  0.46569859  0.03150683     0.76600
C539        C  0.54402965  0.53028044  0.93932406     0.77000
C540        C  0.43977293  0.55264253  0.97286552     0.78100
C541        C  0.47303571  0.44624756  0.95916085     0.77200
Zn542      Zn  0.98600682  0.00068219  0.45863041     1.49700
Zn543      Zn  0.97550797  0.02754494  0.52168843     1.49400
Zn544      Zn  0.99397197  0.96208289  0.51438747     1.49100
Zn545      Zn  0.03912502  0.01173918  0.50060748     1.49500
O546        O  0.99858016  0.00067077  0.49885686    -1.84100
O547        O  0.95362096  0.02839695  0.45299363    -0.74700
O548        O  0.95085476  0.00629160  0.55110557    -0.74500
O549        O  0.97842519  0.93524375  0.48478898    -0.74100
O550        O  0.94805959  0.04878201  0.49561837    -0.74700
O551        O  0.97131844  0.96181414  0.44635582    -0.74300
O552        O  0.96498375  0.96130884  0.54631714    -0.74900
O553        O  0.06304704  0.98002112  0.51783135    -0.74300
O554        O  0.00129490  0.05671608  0.54200231    -0.75100
O555        O  0.03159390  0.94591598  0.52851936    -0.74500
O556        O  0.04485417  0.04679260  0.52512704    -0.74900
O557        O  0.05452811  0.02135866  0.46127276    -0.74800
O558        O  0.01810193  0.01322445  0.43194495    -0.74600
C559        C  0.94112014  0.04624919  0.46932713     0.77200
C560        C  0.94906411  0.98001919  0.55816377     0.77700
C561        C  0.96962691  0.93787279  0.45922364     0.76600
C562        C  0.05720614  0.95551728  0.52819965     0.77000
C563        C  0.02819123  0.06203159  0.54044906     0.78100
C564        C  0.04398508  0.02111557  0.43616108     0.77200
C565        C  0.31378262  0.85120093  0.41808252     0.03200
C566        C  0.29261979  0.84937664  0.43933467    -0.13000
C567        C  0.29605558  0.86348472  0.46547560     0.00700
C568        C  0.32118226  0.87916385  0.47060718    -0.11500
C569        C  0.34280585  0.88075459  0.44971118     0.03200
C570        C  0.33905617  0.86679693  0.42331972    -0.10900
H571        H  0.27286321  0.83786716  0.43504567     0.08800
H572        H  0.32371391  0.89050975  0.49067554     0.06300
H573        H  0.35546624  0.86834802  0.40690282     0.06100
C574        C  0.18440335  0.85877585  0.59276914     0.03200
C575        C  0.15849662  0.87313331  0.58731365    -0.13000
C576        C  0.15355762  0.88524853  0.56027370     0.00700
C577        C  0.17448471  0.88276212  0.53872068    -0.11500
C578        C  0.20057636  0.86881234  0.54422735     0.03200
C579        C  0.20500522  0.85639292  0.57104156    -0.10900
H580        H  0.14249255  0.87520263  0.60406409     0.08800
H581        H  0.17064555  0.89214949  0.51789844     0.06300
H582        H  0.22495314  0.84519992  0.57526986     0.06100
C583        C  0.41357614  0.31653554  0.86289731     0.03200
C584        C  0.43584437  0.29641798  0.86253642    -0.13000
C585        C  0.46030993  0.29989933  0.87975482     0.00700
C586        C  0.46214665  0.32422949  0.89725007    -0.11500
C587        C  0.44103238  0.34556770  0.89602618     0.03200
C588        C  0.41662457  0.34168200  0.87890730    -0.10900
H589        H  0.43371068  0.27771256  0.84902791     0.08800
H590        H  0.48005447  0.32683631  0.91176414     0.06300
H591        H  0.39991281  0.35777514  0.87855188     0.06100
C592        C  0.59091605  0.19076991  0.85839516     0.03200
C593        C  0.56987234  0.21218734  0.85943542    -0.13000
C594        C  0.54604049  0.20968307  0.87772026     0.00700
C595        C  0.54377783  0.18555989  0.89535310    -0.11500
C596        C  0.56403746  0.16345174  0.89371512     0.03200
C597        C  0.58776561  0.16622556  0.87533038    -0.10900
H598        H  0.57227777  0.23097940  0.84611819     0.08800
H599        H  0.52583432  0.18362259  0.91002279     0.06300
H600        H  0.60371671  0.14940525  0.87424524     0.06100
C601        C  0.06898350  0.15935639  0.60497359     0.03200
C602        C  0.09374107  0.16230188  0.62202465    -0.13000
C603        C  0.09772563  0.18720234  0.63857750     0.00700
C604        C  0.07623187  0.20823100  0.63875054    -0.11500
C605        C  0.05155566  0.20563197  0.62176499     0.03200
C606        C  0.04888311  0.18163469  0.60394966    -0.10900
H607        H  0.10934517  0.14517455  0.62291182     0.08800
H608        H  0.07873890  0.22666794  0.65255885     0.06300
H609        H  0.03063342  0.17971849  0.58976264     0.06100
C610        C  0.94511042  0.34077316  0.61304066     0.03200
C611        C  0.91960284  0.33540621  0.62821984    -0.13000
C612        C  0.91584291  0.30916432  0.64226996     0.00700
C613        C  0.93823060  0.28916475  0.64242219    -0.11500
C614        C  0.96382720  0.29418645  0.62719491     0.03200
C615        C  0.96653089  0.31976836  0.61175226    -0.10900
H616        H  0.90260540  0.35119719  0.62852180     0.08800
H617        H  0.93546295  0.26954832  0.65440391     0.06300
H618        H  0.98519869  0.32339485  0.59837125     0.06100
C619        C  0.68536486  0.36484744  0.09201359     0.03200
C620        C  0.70490297  0.36432358  0.06906211    -0.13000
C621        C  0.70189624  0.38281075  0.04559931     0.00700
C622        C  0.67754911  0.40036240  0.04419980    -0.11500
C623        C  0.65658479  0.39955206  0.06573168     0.03200
C624        C  0.66070340  0.38218406  0.08996576    -0.10900
H625        H  0.72289392  0.34969960  0.06978589     0.08800
H626        H  0.67451073  0.41444391  0.02605272     0.06300
H627        H  0.64463579  0.38177271  0.10676082     0.06100
C628        C  0.80754165  0.36383223  0.91008251     0.03200
C629        C  0.83301678  0.37911424  0.91494763    -0.13000
C630        C  0.83585384  0.39589828  0.93966405     0.00700
C631        C  0.81276315  0.39830901  0.95872123    -0.11500
C632        C  0.78727596  0.38283969  0.95447801     0.03200
C633        C  0.78503115  0.36526796  0.93016144    -0.10900
H634        H  0.85078341  0.37729864  0.90003560     0.08800
H635        H  0.81507835  0.41183940  0.97741984     0.06300
H636        H  0.76606691  0.35225167  0.92699930     0.06100
Zn637      Zn  0.75544588  0.23830535  0.79084469     1.49700
Zn638      Zn  0.76756968  0.28894457  0.74716363     1.49400
Zn639      Zn  0.77811686  0.22429197  0.72697214     1.49100
Zn640      Zn  0.71402733  0.24717027  0.73712225     1.49500
O641        O  0.75387210  0.24957256  0.75043269    -1.84100
O642        O  0.77072196  0.27005911  0.81606686    -0.74700
O643        O  0.80183674  0.29126684  0.72129766    -0.74500
O644        O  0.79754889  0.19509100  0.75232108    -0.74100
O645        O  0.77972415  0.30499734  0.78549108    -0.74700
O646        O  0.78144898  0.20466816  0.79606054    -0.74300
O647        O  0.80911524  0.24696352  0.70586411    -0.74900
O648        O  0.71031210  0.22034234  0.70365650    -0.74300
O649        O  0.73705872  0.31443601  0.73025126    -0.75100
O650        O  0.75419309  0.20257818  0.69769823    -0.74500
O651        O  0.69965612  0.28563903  0.72407844    -0.74900
O652        O  0.68774798  0.23203980  0.76808775    -0.74800
O653        O  0.71641914  0.22607553  0.80527091    -0.74600
C654        C  0.77969474  0.29526916  0.81090561     0.77200
C655        C  0.81599309  0.27335820  0.70644512     0.77700
C656        C  0.79651690  0.18964423  0.77905519     0.76600
C657        C  0.72774981  0.20385014  0.69071376     0.77000
C658        C  0.71134406  0.31016597  0.72203863     0.78100
C659        C  0.69165178  0.22438446  0.79395812     0.77200
C660        C  0.05480982  0.83560823  0.89206444     0.03200
C661        C  0.03291072  0.81520154  0.89465522    -0.13000
C662        C  0.03285124  0.79069826  0.87733882     0.00700
C663        C  0.05591754  0.78616860  0.85837963    -0.11500
C664        C  0.07886291  0.80547565  0.85704107     0.03200
C665        C  0.07810690  0.83040178  0.87369936    -0.10900
H666        H  0.01588794  0.81860366  0.91011981     0.08800
H667        H  0.05655000  0.76714444  0.84522311     0.06300
H668        H  0.09564517  0.84567926  0.87244101     0.06100
C669        C  0.90111047  0.68312935  0.86230792     0.03200
C670        C  0.90490351  0.65801749  0.87821507    -0.13000
C671        C  0.92850334  0.65550967  0.89660831     0.00700
C672        C  0.94789038  0.67815254  0.89946157    -0.11500
C673        C  0.94565550  0.70232789  0.88203533     0.03200
C674        C  0.92189310  0.70482765  0.86378370    -0.10900
H675        H  0.88973795  0.64048717  0.87614981     0.08800
H676        H  0.96534657  0.67636720  0.91460254     0.06300
H677        H  0.91958511  0.72358574  0.85045286     0.06100
C678        C  0.89069311  0.05761694  0.83788771     0.03200
C679        C  0.88827969  0.03723316  0.81588778    -0.13000
C680        C  0.86864159  0.04108566  0.79333706     0.00700
C681        C  0.85292622  0.06665052  0.79232071    -0.11500
C682        C  0.85723206  0.08821676  0.81257706     0.03200
C683        C  0.87526048  0.08331520  0.83601851    -0.10900
H684        H  0.90171021  0.01839335  0.81657848     0.08800
H685        H  0.83774830  0.07040412  0.77519014     0.06300
H686        H  0.87787328  0.09964363  0.85226235     0.06100
C687        C  0.84614219  0.91283104  0.68103803     0.03200
C688        C  0.84464643  0.93380297  0.70241543    -0.13000
C689        C  0.85896769  0.96001933  0.69926904     0.00700
C690        C  0.87469172  0.96499967  0.67409205    -0.11500
C691        C  0.87530733  0.94485932  0.65187267     0.03200
C692        C  0.86100811  0.91857339  0.65544335    -0.10900
H693        H  0.83271411  0.92931027  0.72183900     0.08800
H694        H  0.88740054  0.98427634  0.67201119     0.06300
H695        H  0.86199038  0.90250791  0.63876695     0.06100
Zn696      Zn  0.74435312  0.73497089  0.78702023     1.49700
Zn697      Zn  0.73450416  0.78874528  0.74610155     1.49400
Zn698      Zn  0.78793194  0.74630629  0.73420786     1.49100
Zn699      Zn  0.72391376  0.72543019  0.72315290     1.49500
O700        O  0.74788717  0.74900846  0.74765377    -1.84100
O701        O  0.73004028  0.76578239  0.81372926    -0.74700
O702        O  0.76481481  0.81375091  0.72806135    -0.74500
O703        O  0.81278058  0.72960791  0.76554307    -0.74100
O704        O  0.72491228  0.80381031  0.78571396    -0.74700
O705        O  0.78242512  0.72012623  0.80092077    -0.74300
O706        O  0.80275915  0.78545241  0.72188046    -0.74900
O707        O  0.74694441  0.70608138  0.69247465    -0.74300
O708        O  0.69885070  0.79270876  0.72174727    -0.75100
O709        O  0.79184242  0.71960366  0.69986322    -0.74500
O710        O  0.69372123  0.74899277  0.70416745    -0.74900
O711        O  0.70344379  0.69485817  0.74540639    -0.74800
O712        O  0.71640835  0.70245101  0.79022776    -0.74600
C713        C  0.72349146  0.79195062  0.81021873     0.77200
C714        C  0.79067453  0.80985308  0.71994306     0.77700
C715        C  0.80764701  0.71931192  0.79027278     0.76600
C716        C  0.77340810  0.70514226  0.68582631     0.77000
C717        C  0.68571250  0.77492367  0.70585858     0.78100
C718        C  0.70196811  0.68855850  0.77181207     0.77200
Zn719      Zn  0.03867142  0.48755270  0.00475201     1.49700
Zn720      Zn  0.97391772  0.47655735  0.02713429     1.49400
Zn721      Zn  0.99670119  0.53999111  0.01613529     1.49100
Zn722      Zn  0.98522544  0.49715542  0.96353841     1.49500
O723        O  0.99867186  0.50029436  0.00296678    -1.84100
O724        O  0.04227856  0.45502758  0.03259589    -0.74700
O725        O  0.95314255  0.50038161  0.05661877    -0.74500
O726        O  0.03570607  0.55574486  0.02692946    -0.74100
O727        O  0.99784632  0.44766836  0.04819675    -0.74700
O728        O  0.06462439  0.51905698  0.01932591    -0.74300
O729        O  0.97156681  0.54381455  0.05096311    -0.74900
O730        O  0.97117008  0.53498481  0.94928409    -0.74300
O731        O  0.94382120  0.45543462  0.00416057    -0.75100
O732        O  0.97887257  0.56450020  0.98575530    -0.74500
O733        O  0.95200271  0.47005131  0.95984696    -0.74900
O734        O  0.01628476  0.48264286  0.93743213    -0.74800
O735        O  0.05323540  0.47424942  0.96583365    -0.74600
C736        C  0.02452145  0.44149819  0.04826745     0.77200
C737        C  0.95498668  0.52651610  0.06393142     0.77700
C738        C  0.06067810  0.54474116  0.02757117     0.76600
C739        C  0.96941261  0.55962223  0.96068545     0.77000
C740        C  0.93776450  0.45509322  0.97761179     0.78100
C741        C  0.04184516  0.47385337  0.94101607     0.77200
C742        C  0.36871508  0.09735306  0.69111292     0.03200
C743        C  0.38604328  0.09316161  0.66683195    -0.13000
C744        C  0.40130144  0.06749251  0.66359961     0.00700
C745        C  0.39947518  0.04644061  0.68478739    -0.11500
C746        C  0.38175733  0.05020591  0.70878485     0.03200
C747        C  0.36605107  0.07555320  0.71148532    -0.10900
H748        H  0.38725084  0.10946299  0.65043130     0.08800
H749        H  0.41130888  0.02667438  0.68209395     0.06300
H750        H  0.35140648  0.07831175  0.72934349     0.06100
C751        C  0.39253167  0.93608735  0.83411673     0.03200
C752        C  0.37480725  0.91200189  0.83041007    -0.13000
C753        C  0.35678272  0.91007424  0.80635538     0.00700
C754        C  0.35561311  0.93278556  0.78685364    -0.11500
C755        C  0.37441941  0.95610001  0.78924867     0.03200
C756        C  0.39304364  0.95723330  0.81289199    -0.10900
H757        H  0.37509958  0.89491798  0.84602277     0.08800
H758        H  0.33996663  0.93202779  0.76979095     0.06300
H759        H  0.40765587  0.97508773  0.81532534     0.06100
C760        C  0.19000781  0.63752549  0.09726358     0.03200
C761        C  0.16486835  0.62162600  0.09197215    -0.13000
C762        C  0.16149400  0.60722590  0.06568181     0.00700
C763        C  0.18311254  0.60932378  0.04482206    -0.11500
C764        C  0.20740211  0.62638756  0.04930166     0.03200
C765        C  0.21053618  0.64050720  0.07548680    -0.10900
H766        H  0.14844558  0.61990801  0.10835476     0.08800
H767        H  0.18083466  0.59774075  0.02487387     0.06300
H768        H  0.22917743  0.65392428  0.07905872     0.06100
C769        C  0.34190568  0.61916127  0.94158010     0.03200
C770        C  0.33720843  0.63668924  0.91780738    -0.13000
C771        C  0.31231197  0.65344749  0.91647940     0.00700
C772        C  0.29306601  0.65359252  0.93958601    -0.11500
C773        C  0.29692364  0.63508912  0.96300692     0.03200
C774        C  0.32104755  0.61715170  0.96308677    -0.10900
H775        H  0.35264923  0.63711557  0.90041572     0.08800
H776        H  0.27445508  0.66742161  0.93858034     0.06300
H777        H  0.32383598  0.60140697  0.97976822     0.06100
Zn778      Zn  0.26859421  0.77369115  0.72691051     1.49700
Zn779      Zn  0.24511421  0.76465056  0.79061091     1.49400
Zn780      Zn  0.20514227  0.74943137  0.73757097     1.49100
Zn781      Zn  0.26080436  0.71077284  0.75039016     1.49500
O782        O  0.24493754  0.74959580  0.75144865    -1.84100
O783        O  0.28815234  0.80432680  0.75022480    -0.74700
O784        O  0.20492432  0.77410207  0.80417547    -0.74500
O785        O  0.20012024  0.77724620  0.70540033    -0.74100
O786        O  0.26972777  0.80025381  0.79388405    -0.74700
O787        O  0.24405299  0.79369873  0.69759710    -0.74300
O788        O  0.17683168  0.76107207  0.76825548    -0.74900
O789        O  0.23101840  0.68353637  0.73560805    -0.74300
O790        O  0.26151635  0.73529575  0.81758883    -0.75100
O791        O  0.19402969  0.71049982  0.72298573    -0.74500
O792        O  0.27298121  0.69834377  0.78999988    -0.74900
O793        O  0.29465883  0.70675678  0.72278409    -0.74800
O794        O  0.29880527  0.75053449  0.70562682    -0.74600
C795        C  0.28607263  0.81292453  0.77605443     0.77200
C796        C  0.18000158  0.77097938  0.79344138     0.77700
C797        C  0.21735975  0.79315104  0.69158472     0.76600
C798        C  0.20638350  0.68625986  0.72422002     0.77000
C799        C  0.27172562  0.71020719  0.81453157     0.78100
C800        C  0.30669148  0.72447898  0.70585705     0.77200
C801        C  0.29546285  0.65196250  0.86642075    -0.09100
C802        C  0.30438385  0.66834865  0.88987525     0.07100
C803        C  0.30258518  0.69826130  0.88849747    -0.02900
C804        C  0.29207328  0.71135250  0.86375749    -0.07300
C805        C  0.28286278  0.69505762  0.84012867     0.06200
C806        C  0.28447606  0.66490290  0.84179834    -0.02400
Br807      Br  0.26987815  0.63982760  0.81266585    -0.02100
H808        H  0.29600185  0.62885710  0.86774413     0.10100
H809        H  0.29113083  0.73445820  0.86305102     0.08100
Br810      Br  0.31443980  0.72200861  0.91980422    -0.02500
C811        C  0.25900187  0.62600543  0.03515845    -0.09100
C812        C  0.23008816  0.62885187  0.02713101     0.07100
C813        C  0.22354712  0.63466667  0.99831150    -0.02900
C814        C  0.24550136  0.63562226  0.97800420    -0.07300
C815        C  0.27456876  0.63305958  0.98585621     0.06200
C816        C  0.28120154  0.62889913  0.01516783    -0.02400
Br817      Br  0.31956373  0.62954921  0.03042671    -0.02100
H818        H  0.26444645  0.62205828  0.05733956     0.10100
H819        H  0.23956883  0.63876915  0.95585096     0.08100
Br820      Br  0.18555542  0.64431339  0.98554793    -0.02500
C821        C  0.33007752  0.84239061  0.77107304    -0.09100
C822        C  0.30388495  0.83761838  0.78530488     0.07100
C823        C  0.29569768  0.85657482  0.80754023    -0.02900
C824        C  0.31368070  0.87950992  0.81494806    -0.07300
C825        C  0.33967138  0.88412226  0.80045557     0.06200
C826        C  0.34783261  0.86526758  0.77842467    -0.02400
Br827      Br  0.38322961  0.86968664  0.75778371    -0.02100
H828        H  0.33695597  0.82813320  0.75411363     0.10100
H829        H  0.30695263  0.89432577  0.83148158     0.08100
Br830      Br  0.25944254  0.85394287  0.82705614    -0.02500
C831        C  0.37753681  0.00815960  0.77825547    -0.09100
C832        C  0.37421764  0.98000133  0.76810424     0.07100
C833        C  0.37232937  0.97561121  0.73814787    -0.02900
C834        C  0.37376561  0.99891741  0.71957648    -0.07300
C835        C  0.37833990  0.02673411  0.72978520     0.06200
C836        C  0.38038320  0.03122954  0.75953966    -0.02400
Br837      Br  0.38985141  0.06764545  0.77604333    -0.02100
H838        H  0.37871145  0.01231814  0.80102239     0.10100
H839        H  0.37207015  0.99513281  0.69675804     0.08100
Br840      Br  0.37060246  0.93874405  0.72016300    -0.02500
C841        C  0.11247223  0.54751177  0.04080349    -0.09100
C842        C  0.08575454  0.56146519  0.03856336     0.07100
C843        C  0.08402744  0.59045309  0.04750882    -0.02900
C844        C  0.10866291  0.60455638  0.05753663    -0.07300
C845        C  0.13524713  0.59058040  0.05894639     0.06200
C846        C  0.13687991  0.56165253  0.05087359    -0.02400
Br847      Br  0.17186313  0.54012796  0.05385334    -0.02100
H848        H  0.11459275  0.52528571  0.03471817     0.10100
H849        H  0.10725212  0.62689994  0.06345322     0.08100
Br850      Br  0.04942052  0.61281201  0.04629057    -0.02500
C851        C  0.84808402  0.86593631  0.70559747    -0.09100
C852        C  0.83350993  0.88446851  0.68702398     0.07100
C853        C  0.80560395  0.87742032  0.67802652    -0.02900
C854        C  0.79230074  0.85265319  0.68844434    -0.07300
C855        C  0.80655158  0.83441216  0.70766617     0.06200
C856        C  0.83495290  0.84099509  0.71581957    -0.02400
Br857      Br  0.85571535  0.81843314  0.74310073    -0.02100
H858        H  0.86936856  0.87151339  0.71306871     0.10100
H859        H  0.77052898  0.84786527  0.68186898     0.08100
Br860      Br  0.78438173  0.90187781  0.65287631    -0.02500
C861        C  0.86170791  0.02956413  0.74153338    -0.09100
C862        C  0.86547396  0.01970632  0.76976795     0.07100
C863        C  0.86507675  0.98988540  0.77461659    -0.02900
C864        C  0.86327564  0.97103100  0.75144298    -0.07300
C865        C  0.85972227  0.98097970  0.72327736     0.06200
C866        C  0.85760316  0.01070727  0.71873214    -0.02400
Br867      Br  0.84641575  0.02711994  0.68271694    -0.02100
H868        H  0.86150177  0.05223870  0.73699449     0.10100
H869        H  0.86444290  0.94831467  0.75564317     0.08100
Br870      Br  0.86409173  0.97307018  0.81211045    -0.02500
C871        C  0.92954230  0.62754793  0.94132404    -0.09100
C872        C  0.93472005  0.62886141  0.91186320     0.07100
C873        C  0.94991154  0.60667984  0.89828877    -0.02900
C874        C  0.96033990  0.58388680  0.91445624    -0.07300
C875        C  0.95626786  0.58306227  0.94423630     0.06200
C876        C  0.94000469  0.60483368  0.95759190    -0.02400
Br877      Br  0.93063126  0.60456286  0.99765347    -0.02100
H878        H  0.91796372  0.64473598  0.95183519     0.10100
H879        H  0.97267745  0.56730489  0.90383699     0.08100
Br880      Br  0.95879101  0.60777270  0.85817008    -0.02500
C881        C  0.88108160  0.69199147  0.81415343    -0.09100
C882        C  0.87613875  0.68719615  0.84332131     0.07100
C883        C  0.84808532  0.68994608  0.85422575    -0.02900
C884        C  0.82607250  0.69968661  0.83639939    -0.07300
C885        C  0.83128151  0.70643182  0.80743337     0.06200
C886        C  0.85903054  0.70103898  0.79606892    -0.02400
Br887      Br  0.86888767  0.70488998  0.75629515    -0.02100
H888        H  0.90255784  0.68924849  0.80549628     0.10100
H889        H  0.80491304  0.70278057  0.84562861     0.08100
Br890      Br  0.83906086  0.68264723  0.89366315    -0.02500
C891        C  0.12967895  0.79031386  0.85506015    -0.09100
C892        C  0.10470662  0.79794996  0.84028382     0.07100
C893        C  0.10423944  0.79596131  0.81025306    -0.02900
C894        C  0.12888573  0.78709922  0.79544548    -0.07300
C895        C  0.15417916  0.77959919  0.81015916     0.06200
C896        C  0.15412281  0.78079523  0.84043368    -0.02400
Br897      Br  0.18549427  0.76752349  0.86351826    -0.02100
H898        H  0.12981065  0.79084666  0.87821955     0.10100
H899        H  0.12826344  0.78624689  0.77230885     0.08100
Br900      Br  0.07058803  0.80552054  0.78862372    -0.02500
C901        C  0.01813312  0.73986772  0.88096055    -0.09100
C902        C  0.00996629  0.76871408  0.88005544     0.07100
C903        C  0.98037952  0.77552770  0.88058994    -0.02900
C904        C  0.95999818  0.75365035  0.88235780    -0.07300
C905        C  0.96821401  0.72477054  0.88240596     0.06200
C906        C  0.99780436  0.71801104  0.88133417    -0.02400
Br907      Br  0.01236764  0.67976851  0.87723053    -0.02100
H908        H  0.04072949  0.73413309  0.88057106     0.10100
H909        H  0.93737216  0.75930830  0.88297498     0.08100
Br910      Br  0.96601082  0.81374674  0.87623265    -0.02500
C911        C  0.83881741  0.15761564  0.77640106    -0.09100
C912        C  0.81321137  0.16524448  0.79037600     0.07100
C913        C  0.80372971  0.14862457  0.81392442    -0.02900
C914        C  0.81930465  0.12438382  0.82214625    -0.07300
C915        C  0.84418721  0.11636658  0.80731977     0.06200
C916        C  0.85425987  0.13348881  0.78469433    -0.02400
Br917      Br  0.88866016  0.12418881  0.76392624    -0.02100
H918        H  0.84667940  0.17023329  0.75860294     0.10100
H919        H  0.81124093  0.11098870  0.83927236     0.08100
Br920      Br  0.76843473  0.15593896  0.83405965    -0.02500
C921        C  0.87799261  0.39974647  0.97166207    -0.09100
C922        C  0.86342319  0.40945558  0.94729674     0.07100
C923        C  0.87426236  0.43301590  0.93215974    -0.02900
C924        C  0.89885672  0.44705902  0.94204152    -0.07300
C925        C  0.91308856  0.43800888  0.96702314     0.06200
C926        C  0.90275637  0.41353074  0.98147166    -0.02400
Br927      Br  0.92184374  0.39692277  0.01385040    -0.02100
H928        H  0.86988680  0.38136876  0.98323513     0.10100
H929        H  0.90634717  0.46572137  0.93054399     0.08100
Br930      Br  0.85516708  0.44784793  0.89902490    -0.02500
C931        C  0.79918254  0.35951713  0.85781728    -0.09100
C932        C  0.80416824  0.34613559  0.88411010     0.07100
C933        C  0.80385017  0.31617566  0.88558099    -0.02900
C934        C  0.79664215  0.30010291  0.86136230    -0.07300
C935        C  0.78993998  0.31338389  0.83514458     0.06200
C936        C  0.79230005  0.34357399  0.83337127    -0.02400
Br937      Br  0.78510966  0.36506136  0.79910242    -0.02100
H938        H  0.79974808  0.38262011  0.85652710     0.10100
H939        H  0.79598215  0.27705464  0.86322323     0.08100
Br940      Br  0.81343411  0.29644109  0.92023964    -0.02500
C941        C  0.71497020  0.38478809  0.99350814    -0.09100
C942        C  0.72380837  0.38335278  0.02229532     0.07100
C943        C  0.75353396  0.38304584  0.02824228    -0.02900
C944        C  0.77335329  0.38178243  0.00586813    -0.07300
C945        C  0.76466305  0.38315341  0.97711340     0.06200
C946        C  0.73503354  0.38562058  0.97108854    -0.02400
Br947      Br  0.72064901  0.39302197  0.93330995    -0.02100
H948        H  0.69233732  0.38572825  0.98834639     0.10100
H949        H  0.79593185  0.38035237  0.01115852     0.08100
Br950      Br  0.76904221  0.38755260  0.06609071    -0.02500
C951        C  0.84610633  0.27237447  0.66222425    -0.09100
C952        C  0.84097841  0.28362716  0.68964720     0.07100
C953        C  0.85989195  0.30465266  0.70053059    -0.02900
C954        C  0.88343949  0.31368396  0.68420561    -0.07300
C955        C  0.88872377  0.30208008  0.65710614     0.06200
C956        C  0.86968040  0.28152052  0.64593372    -0.02400
Br957      Br  0.87505598  0.26554521  0.60845885    -0.02100
H958        H  0.83167778  0.25650811  0.65338608     0.10100
H959        H  0.89832428  0.32907847  0.69313766     0.08100
Br960      Br  0.85639385  0.32004723  0.73850464    -0.02500
C961        C  0.03682557  0.25695205  0.62486368    -0.09100
C962        C  0.02876853  0.22803226  0.62295128     0.07100
C963        C  0.99916487  0.22123914  0.62373904    -0.02900
C964        C  0.97870747  0.24305040  0.62404344    -0.07300
C965        C  0.98673534  0.27192884  0.62611296     0.06200
C966        C  0.01632321  0.27862310  0.62765376    -0.02400
Br967      Br  0.03047657  0.31611208  0.63685897    -0.02100
H968        H  0.05932660  0.26282877  0.62499232     0.10100
H969        H  0.95621780  0.23717723  0.62332421     0.08100
Br970      Br  0.98469935  0.18302149  0.62795728    -0.02500
C971        C  0.64341027  0.19863949  0.85529651    -0.09100
C972        C  0.61713862  0.19543225  0.84115786     0.07100
C973        C  0.61593263  0.19967801  0.81141491    -0.02900
C974        C  0.64049978  0.20849915  0.79657136    -0.07300
C975        C  0.66675260  0.21327540  0.81081494     0.06200
C976        C  0.66809946  0.20747680  0.84061714    -0.02400
Br977      Br  0.70201489  0.21215160  0.86354219    -0.02100
H978        H  0.64444438  0.19536965  0.87823747     0.10100
H979        H  0.63883068  0.21193000  0.77371420     0.08100
Br980      Br  0.58128699  0.19330615  0.79012423    -0.02500
C981        C  0.47424992  0.24851011  0.87957121    -0.09100
C982        C  0.48288252  0.27730617  0.88013235     0.07100
C983        C  0.51264101  0.28354423  0.87965228    -0.02900
C984        C  0.53266673  0.26125786  0.87970838    -0.07300
C985        C  0.52391193  0.23254538  0.87871151     0.06200
C986        C  0.49424294  0.22636029  0.87789889    -0.02400
Br987      Br  0.47933730  0.18859989  0.87142044    -0.02100
H988        H  0.45162656  0.24305964  0.87971623     0.10100
H989        H  0.55535006  0.26647794  0.87990726     0.08100
Br990      Br  0.52778732  0.32157214  0.87598003    -0.02500
C991        C  0.22342815  0.83482083  0.65931602    -0.09100
C992        C  0.20649182  0.81152912  0.66809040     0.07100
C993        C  0.18024958  0.80622254  0.65364006    -0.02900
C994        C  0.17248090  0.82313437  0.63020775    -0.07300
C995        C  0.19031115  0.84528317  0.62068929     0.06200
C996        C  0.21554534  0.85164568  0.63599900    -0.02400
Br997      Br  0.24007137  0.88311774  0.62594918    -0.02100
H998        H  0.24318810  0.83986554  0.67042156     0.10100
H999        H  0.15312558  0.81802341  0.61843076     0.08100
Br1000     Br  0.15484007  0.77515952  0.66281407    -0.02500
C1001       C  0.25919690  0.89075602  0.49211277    -0.09100
C1002       C  0.27196800  0.86434197  0.48599368     0.07100
C1003       C  0.26081744  0.83937000  0.49857622    -0.02900
C1004       C  0.23686525  0.84114406  0.51658841    -0.07300
C1005       C  0.22395555  0.86761941  0.52272592     0.06200
C1006       C  0.23555373  0.89264256  0.51046677    -0.02400
Br1007     Br  0.22173731  0.93018669  0.51966334    -0.02100
H1008       H  0.26778883  0.91007580  0.48262050     0.10100
H1009       H  0.22860587  0.82181185  0.52632875     0.08100
Br1010     Br  0.27867178  0.80276080  0.49339413    -0.02500
C1011       C  0.07141278  0.12810941  0.56168246    -0.09100
C1012       C  0.06198707  0.13238975  0.58987859     0.07100
C1013       C  0.04224963  0.11295940  0.60189918    -0.02900
C1014       C  0.03147742  0.09032062  0.58549775    -0.07300
C1015       C  0.04046320  0.08616578  0.55710378     0.06200
C1016       C  0.06103788  0.10512408  0.54533899    -0.02400
Br1017     Br  0.07387959  0.10224003  0.50635816    -0.02100
H1018       H  0.08610461  0.14327125  0.55202513     0.10100
H1019       H  0.01605651  0.07581181  0.59503637     0.08100
Br1020     Br  0.02913474  0.11681508  0.64065544    -0.02500
C1021       C  0.08028639  0.90786886  0.53344418    -0.09100
C1022       C  0.08079320  0.93736622  0.53917051     0.07100
C1023       C  0.10445350  0.94895114  0.55410112    -0.02900
C1024       C  0.12750158  0.93135399  0.56172783    -0.07300
C1025       C  0.12747258  0.90223856  0.55476904     0.06200
C1026       C  0.10349234  0.89038238  0.54090576    -0.02400
Br1027     Br  0.10205532  0.85064902  0.53099076    -0.02100
H1028       H  0.06226869  0.89855285  0.52214946     0.10100
H1029       H  0.14582834  0.94053852  0.57264080     0.08100
Br1030     Br  0.10616255  0.98833038  0.56551641    -0.02500
C1031       C  0.93499039  0.94563689  0.59639925    -0.09100
C1032       C  0.92856974  0.97055882  0.58080994     0.07100
C1033       C  0.90279573  0.98529643  0.58720070    -0.02900
C1034       C  0.88517485  0.97588884  0.60969809    -0.07300
C1035       C  0.89227150  0.95157058  0.62580455     0.06200
C1036       C  0.91721578  0.93615487  0.61865561    -0.02400
Br1037     Br  0.92927230  0.90332762  0.64003927    -0.02100
H1038       H  0.95446092  0.93380505  0.59184166     0.10100
H1039       H  0.86590870  0.98781106  0.61489357     0.08100
Br1040     Br  0.88957045  0.01749831  0.56544749    -0.02500
C1041       C  0.41531109  0.59925250  0.96825073    -0.09100
C1042       C  0.41613876  0.57005451  0.96164776     0.07100
C1043       C  0.39350981  0.55769801  0.94587476    -0.02900
C1044       C  0.37003190  0.57445897  0.93784181    -0.07300
C1045       C  0.36891853  0.60344131  0.94516609     0.06200
C1046       C  0.39194367  0.61598964  0.96003164    -0.02400
Br1047     Br  0.39142393  0.65546272  0.97113461    -0.02100
H1048       H  0.43261591  0.60892017  0.98034545     0.10100
H1049       H  0.35200623  0.56460068  0.92701863     0.08100
Br1050     Br  0.39204393  0.51754014  0.93758083    -0.02500
C1051       C  0.58308485  0.41926960  0.03803330    -0.09100
C1052       C  0.58228283  0.44879208  0.04335679     0.07100
C1053       C  0.60520855  0.46152525  0.05858588    -0.02900
C1054       C  0.62859723  0.44482954  0.06735774    -0.07300
C1055       C  0.62966935  0.41555469  0.06110597     0.06200
C1056       C  0.60667849  0.40279952  0.04637267    -0.02400
Br1057     Br  0.60777896  0.36339473  0.03510633    -0.02100
H1058       H  0.56592286  0.40917076  0.02611468     0.10100
H1059       H  0.64643611  0.45487984  0.07828834     0.08100
Br1060     Br  0.60575328  0.50140621  0.06833794    -0.02500
C1061       C  0.44948990  0.39863774  0.95635689    -0.09100
C1062       C  0.46284076  0.42157426  0.94213467     0.07100
C1063       C  0.46650944  0.42006799  0.91208002    -0.02900
C1064       C  0.45804793  0.39549915  0.89730622    -0.07300
C1065       C  0.44563935  0.37240888  0.91176748     0.06200
C1066       C  0.44072927  0.37428761  0.94136898    -0.02400
Br1067     Br  0.42215609  0.34405658  0.96198642    -0.02100
H1068       H  0.44589696  0.39959359  0.97925860     0.10100
H1069       H  0.46203547  0.39399367  0.87448879     0.08100
Br1070     Br  0.48475597  0.44956710  0.88993813    -0.02500
C1071       C  0.38811430  0.47948686  0.11499074    -0.09100
C1072       C  0.39519170  0.45388597  0.12895576     0.07100
C1073       C  0.41837668  0.43757698  0.11858822    -0.02900
C1074       C  0.43483632  0.44769166  0.09565630    -0.07300
C1075       C  0.42884518  0.47409924  0.08252790     0.06200
C1076       C  0.40443818  0.48960410  0.09189853    -0.02400
Br1077     Br  0.39147610  0.52427414  0.07413382    -0.02100
H1078       H  0.37010716  0.49205788  0.12259443     0.10100
H1079       H  0.45316994  0.43518877  0.08880657     0.08100
Br1080     Br  0.43031608  0.40265833  0.13646448    -0.02500
C1081       C  0.40032855  0.51557849  0.25773049    -0.09100
C1082       C  0.37504343  0.52690563  0.26943748     0.07100
C1083       C  0.34826756  0.51559024  0.26117493    -0.02900
C1084       C  0.34712256  0.49382584  0.24071686    -0.07300
C1085       C  0.37239865  0.48303342  0.22838330     0.06200
C1086       C  0.39922100  0.49374544  0.23739843    -0.02400
Br1087     Br  0.43496736  0.47836482  0.22375211    -0.02100
H1088       H  0.42101798  0.52371918  0.26453136     0.10100
H1089       H  0.32642646  0.48550164  0.23417046     0.08100
Br1090     Br  0.31288005  0.52820873  0.27817899    -0.02500
C1091       C  0.71677334  0.84989015  0.86666904    -0.09100
C1092       C  0.69553381  0.83838518  0.88463110     0.07100
C1093       C  0.68275784  0.81212753  0.87742673    -0.02900
C1094       C  0.69212054  0.79729278  0.85306179    -0.07300
C1095       C  0.71362202  0.80866569  0.83520558     0.06200
C1096       C  0.72563624  0.83546544  0.84194758    -0.02400
Br1097     Br  0.75561632  0.85238131  0.81934552    -0.02100
H1098       H  0.72684440  0.87002504  0.87219893     0.10100
H1099       H  0.68254129  0.77680739  0.84799663     0.08100
Br1100     Br  0.65328820  0.79538769  0.90076722    -0.02500
C1101       C  0.78447661  0.85608898  0.13664578    -0.09100
C1102       C  0.80670261  0.84590858  0.11913623     0.07100
C1103       C  0.82010918  0.81989979  0.12597466    -0.02900
C1104       C  0.81088987  0.80429791  0.14991061    -0.07300
C1105       C  0.78791270  0.81397705  0.16701692     0.06200
C1106       C  0.77502532  0.84052395  0.16039231    -0.02400
Br1107     Br  0.74488648  0.85727704  0.18304106    -0.02100
H1108       H  0.77396109  0.87605530  0.13138974     0.10100
H1109       H  0.82099303  0.78396986  0.15448473     0.08100
Br1110     Br  0.84953927  0.80399997  0.10200054    -0.02500
C1111       C  0.74410671  0.87289563  0.03047503    -0.09100
C1112       C  0.77316110  0.87352596  0.02215802     0.07100
C1113       C  0.77982163  0.87204858  0.99265395    -0.02900
C1114       C  0.75771919  0.87172858  0.97245034    -0.07300
C1115       C  0.72868139  0.87088577  0.98079027     0.06200
C1116       C  0.72208763  0.87055839  0.01035023    -0.02400
Br1117     Br  0.68405036  0.86400849  0.02514900    -0.02100
H1118       H  0.73836048  0.87363263  0.05293860     0.10100
H1119       H  0.76342154  0.87162655  0.94996836     0.08100
Br1120     Br  0.81824952  0.86739109  0.97822828    -0.02500
C1121       C  0.94133552  0.86309407  0.44224777    -0.09100
C1122       C  0.93918884  0.86440745  0.41240805     0.07100
C1123       C  0.94503136  0.89029120  0.39834344    -0.02900
C1124       C  0.95418426  0.91402611  0.41405150    -0.07300
C1125       C  0.95760649  0.91262678  0.44395220     0.06200
C1126       C  0.95001049  0.88689645  0.45817034    -0.02400
Br1127     Br  0.95023251  0.88226599  0.49907483    -0.02100
H1128       H  0.93668278  0.84320456  0.45317776     0.10100
H1129       H  0.95948203  0.93342265  0.40257516     0.08100
Br1130     Br  0.94294705  0.89363012  0.35746800    -0.02500
C1131       C  0.85985691  0.78592111  0.35885053    -0.09100
C1132       C  0.88119455  0.80287331  0.34618575     0.07100
C1133       C  0.87875201  0.81060196  0.31726745    -0.02900
C1134       C  0.85491966  0.80164669  0.30146795    -0.07300
C1135       C  0.83343938  0.78462132  0.31401829     0.06200
C1136       C  0.83617555  0.77656302  0.34300248    -0.02400
Br1137     Br  0.81016752  0.75034020  0.36117694    -0.02100
H1138       H  0.86224352  0.77901657  0.38084120     0.10100
H1139       H  0.85331893  0.80777440  0.27918097     0.08100
Br1140     Br  0.90812317  0.83227368  0.29831113    -0.02500
C1141       C  0.00673780  0.78087364  0.37749174    -0.09100
C1142       C  0.97802651  0.77153478  0.37804522     0.07100
C1143       C  0.97240115  0.74193257  0.37931599    -0.02900
C1144       C  0.99509520  0.72255876  0.37867270    -0.07300
C1145       C  0.02382182  0.73177105  0.37865810     0.06200
C1146       C  0.02954039  0.76146215  0.37855015    -0.02400
Br1147     Br  0.06744277  0.77733252  0.38245726    -0.02100
H1148       H  0.01153398  0.80350491  0.37682771     0.10100
H1149       H  0.99010005  0.69996897  0.37871382     0.08100
Br1150     Br  0.93465872  0.72616441  0.38488186    -0.02500
C1151       C  0.67362753  0.87521797  0.31931534    -0.09100
C1152       C  0.65348191  0.88634645  0.30002688     0.07100
C1153       C  0.64885304  0.87181319  0.27395869    -0.02900
C1154       C  0.66539640  0.84783665  0.26696689    -0.07300
C1155       C  0.68650519  0.83720874  0.28567129     0.06200
C1156       C  0.68997875  0.85092187  0.31255652    -0.02400
Br1157     Br  0.71736411  0.83896314  0.34080627    -0.02100
H1158       H  0.67735476  0.88605424  0.33947329     0.10100
H1159       H  0.66155425  0.83738384  0.24663641     0.08100
Br1160     Br  0.61932983  0.88286453  0.24749352    -0.02500
C1161       C  0.59909543  0.99311359  0.25820199    -0.09100
C1162       C  0.62554828  0.98468193  0.26975826     0.07100
C1163       C  0.65095310  0.99806504  0.26042421    -0.02900
C1164       C  0.64970029  0.01875130  0.23897962    -0.07300
C1165       C  0.62332416  0.02674084  0.22685839     0.06200
C1166       C  0.59776268  0.01410934  0.23702365    -0.02400
Br1167     Br  0.56046083  0.02591641  0.22416301    -0.02100
H1168       H  0.57938590  0.98332592  0.26575423     0.10100
H1169       H  0.66944621  0.02868188  0.23172028     0.08100
Br1170     Br  0.68756292  0.99004446  0.27741119    -0.02500
C1171       C  0.89369361  0.54002206  0.11579316    -0.09100
C1172       C  0.90806479  0.55450962  0.13778026     0.07100
C1173       C  0.93749754  0.56061322  0.13490174    -0.02900
C1174       C  0.95220972  0.55221361  0.11018070    -0.07300
C1175       C  0.93812173  0.53690020  0.08852211     0.06200
C1176       C  0.90852152  0.53106685  0.09128246    -0.02400
Br1177     Br  0.88730625  0.51156578  0.06198946    -0.02100
H1178       H  0.87107769  0.53502751  0.11806214     0.10100
H1179       H  0.97498312  0.55666348  0.10836925     0.08100
Br1180     Br  0.95863847  0.57899040  0.16492893    -0.02500
C1181       C  0.81730792  0.61193072  0.21078516    -0.09100
C1182       C  0.84547759  0.61589580  0.20094839     0.07100
C1183       C  0.85631202  0.64389456  0.19869816    -0.02900
C1184       C  0.83908029  0.66719206  0.20667444    -0.07300
C1185       C  0.81091540  0.66330204  0.21719130     0.06200
C1186       C  0.80009638  0.63497042  0.21896970    -0.02400
Br1187     Br  0.76261147  0.62492187  0.23305869    -0.02100
H1188       H  0.80872772  0.59047766  0.21260625     0.10100
H1189       H  0.84806711  0.68846798  0.20506050     0.08100
Br1190     Br  0.89511312  0.65144467  0.18696982    -0.02500
C1191       C  0.85303067  0.48700385  0.26293813    -0.09100
C1192       C  0.87850266  0.47850500  0.27647022     0.07100
C1193       C  0.90480250  0.49107001  0.26817397    -0.02900
C1194       C  0.90502759  0.51234191  0.24718605    -0.07300
C1195       C  0.87940746  0.52114235  0.23418067     0.06200
C1196       C  0.85333608  0.50793755  0.24179168    -0.02400
Br1197     Br  0.81780710  0.51664228  0.22290956    -0.02100
H1198       H  0.83273132  0.47731628  0.26889229     0.10100
H1199       H  0.92523085  0.52205349  0.24096233     0.08100
Br1200     Br  0.94106916  0.47892249  0.28343972    -0.02500
C1201       C  0.57399116  0.07221209  0.11885896    -0.09100
C1202       C  0.59775985  0.05615794  0.12772419     0.07100
C1203       C  0.60533174  0.03148646  0.11210194    -0.02900
C1204       C  0.58850258  0.02257671  0.08897303    -0.07300
C1205       C  0.56398404  0.03793076  0.08060546     0.06200
C1206       C  0.55707200  0.06340009  0.09564745    -0.02400
Br1207     Br  0.52364775  0.08608852  0.08758385    -0.02100
H1208       H  0.56773125  0.09099099  0.13093042     0.10100
H1209       H  0.59465399  0.00339956  0.07750685     0.08100
Br1210     Br  0.63872385  0.00929950  0.12132240    -0.02500
C1211       C  0.58605946  0.90763474  0.96650577    -0.09100
C1212       C  0.58699145  0.93718031  0.96157669     0.07100
C1213       C  0.61102866  0.94913080  0.94765794    -0.02900
C1214       C  0.63397403  0.93161294  0.93956282    -0.07300
C1215       C  0.63317263  0.90215301  0.94475377     0.06200
C1216       C  0.60884688  0.89006156  0.95797567    -0.02400
Br1217     Br  0.60641103  0.84990289  0.96573630    -0.02100
H1218       H  0.56759000  0.89823777  0.97707132     0.10100
H1219       H  0.65292115  0.94111473  0.92997880     0.08100
Br1220     Br  0.61460175  0.98948846  0.94141219    -0.02500
C1221       C  0.41379131  0.95522284  0.91018332    -0.09100
C1222       C  0.44359506  0.95999540  0.90735720     0.07100
C1223       C  0.45669726  0.95333117  0.88067494    -0.02900
C1224       C  0.43985960  0.94406487  0.85760066    -0.07300
C1225       C  0.41005480  0.94056260  0.86029919     0.06200
C1226       C  0.39713370  0.94563173  0.88709730    -0.02400
Br1227     Br  0.35641977  0.94205224  0.89267352    -0.02100
H1228       H  0.40306467  0.95974928  0.93027050     0.10100
H1229       H  0.45004374  0.94015512  0.83708677     0.08100
Br1230     Br  0.49731648  0.95592036  0.87358517    -0.02500
C1231       C  0.54514635  0.11127616  0.95261874    -0.09100
C1232       C  0.54007389  0.08601684  0.93696654     0.07100
C1233       C  0.54584397  0.08606283  0.90717406    -0.02900
C1234       C  0.55501523  0.11124310  0.89382268    -0.07300
C1235       C  0.55869757  0.13657667  0.90942194     0.06200
C1236       C  0.55438497  0.13627323  0.93920909    -0.02400
Br1237     Br  0.56137125  0.16922066  0.96271068    -0.02100
H1238       H  0.54177709  0.11179456  0.97555931     0.10100
H1239       H  0.55823614  0.11133641  0.87084423     0.08100
Br1240     Br  0.54053761  0.05343024  0.88277645    -0.02500
C1241       C  0.17373753  0.20397486  0.66325448    -0.09100
C1242       C  0.16908166  0.21142677  0.69219245     0.07100
C1243       C  0.14114046  0.20746874  0.70371186    -0.02900
C1244       C  0.11884283  0.19777094  0.68616992    -0.07300
C1245       C  0.12329715  0.19173425  0.65707512     0.06200
C1246       C  0.15124676  0.19432531  0.64577375    -0.02400
Br1247     Br  0.15946961  0.18730813  0.60612249    -0.02100
H1248       H  0.19483289  0.20645492  0.65377120     0.10100
H1249       H  0.09745630  0.19577222  0.69514312     0.08100
Br1250     Br  0.13092013  0.21509388  0.74287820    -0.02500
C1251       C  0.32206875  0.12210043  0.69504467    -0.09100
C1252       C  0.35212561  0.12378855  0.69545862     0.07100
C1253       C  0.36547547  0.14933346  0.70424669    -0.02900
C1254       C  0.34865312  0.17209174  0.71419168    -0.07300
C1255       C  0.31860339  0.16995473  0.71460835     0.06200
C1256       C  0.30528002  0.14507165  0.70414398    -0.02400
Br1257     Br  0.26426919  0.14069555  0.70370164    -0.02100
H1258       H  0.31166253  0.10246366  0.68846144     0.10100
H1259       H  0.35900618  0.19142959  0.72166840     0.08100
Br1260     Br  0.40646430  0.15357556  0.70425062    -0.02500
C1261       C  0.34611425  0.27867603  0.83914017    -0.09100
C1262       C  0.34009513  0.29234550  0.81307648     0.07100
C1263       C  0.35731558  0.31591376  0.80472223    -0.02900
C1264       C  0.38045519  0.32449746  0.82188841    -0.07300
C1265       C  0.38682527  0.31004006  0.84731290     0.06200
C1266       C  0.36908163  0.28738954  0.85621882    -0.02400
Br1267     Br  0.37543162  0.26773101  0.89169381    -0.02100
H1268       H  0.33292325  0.26099234  0.84629829     0.10100
H1269       H  0.39420838  0.34179462  0.81482056     0.08100
Br1270     Br  0.35216090  0.33589076  0.76922482    -0.02500
C1271       C  0.16159683  0.66163214  0.70872383    -0.09100
C1272       C  0.19159879  0.66077813  0.71238652     0.07100
C1273       C  0.20650637  0.63539968  0.70506626    -0.02900
C1274       C  0.19121596  0.61148516  0.69574436    -0.07300
C1275       C  0.16125954  0.61214809  0.69325671     0.06200
C1276       C  0.14641368  0.63758953  0.69942991    -0.02400
Br1277     Br  0.10527200  0.63984733  0.69805078    -0.02100
H1278       H  0.14965905  0.68076137  0.71412277     0.10100
H1279       H  0.20273057  0.59191058  0.69102913     0.08100
Br1280     Br  0.24759571  0.63143009  0.70673321    -0.02500
C1281       C  0.08732628  0.45409996  0.92034418    -0.09100
C1282       C  0.05876000  0.46305752  0.91599767     0.07100
C1283       C  0.04753622  0.46180993  0.88777015    -0.02900
C1284       C  0.06492454  0.45247532  0.86515764    -0.07300
C1285       C  0.09360056  0.44443697  0.86952527     0.06200
C1286       C  0.10470819  0.44508778  0.89754121    -0.02400
Br1287     Br  0.14414562  0.43640793  0.90571311    -0.02100
H1288       H  0.09662993  0.45479622  0.94155536     0.10100
H1289       H  0.05612650  0.45210922  0.84370385     0.08100
Br1290     Br  0.00917487  0.47304993  0.87743307    -0.02500
C1291       C  0.18756195  0.37651301  0.82364095    -0.09100
C1292       C  0.16040042  0.38177730  0.81189536     0.07100
C1293       C  0.14909259  0.36267744  0.79153620    -0.02900
C1294       C  0.16537290  0.33930725  0.78236653    -0.07300
C1295       C  0.19319554  0.33485358  0.79287273     0.06200
C1296       C  0.20397220  0.35315666  0.81434434    -0.02400
Br1297     Br  0.24051070  0.34665073  0.83213409    -0.02100
H1298       H  0.19637537  0.39110187  0.83935291     0.10100
H1299       H  0.15671418  0.32521480  0.76611937     0.08100
Br1300     Br  0.11199648  0.36857529  0.77470823    -0.02500
C1301       C  0.13380020  0.46766993  0.74678865    -0.09100
C1302       C  0.13290345  0.47720649  0.77535608     0.07100
C1303       C  0.13313531  0.50691051  0.78070839    -0.02900
C1304       C  0.13217175  0.52605408  0.75787114    -0.07300
C1305       C  0.13295659  0.51653172  0.72933857     0.06200
C1306       C  0.13479230  0.48690059  0.72396653    -0.02400
Br1307     Br  0.14132983  0.47116667  0.68648429    -0.02100
H1308       H  0.13405331  0.44501766  0.74205048     0.10100
H1309       H  0.13119781  0.54869535  0.76258219     0.08100
Br1310     Br  0.13749222  0.52315021  0.81825725    -0.02500
C1311       C  0.22258215  0.14488050  0.86379981    -0.09100
C1312       C  0.20138233  0.15573266  0.88222054     0.07100
C1313       C  0.18950887  0.18277263  0.87682109    -0.02900
C1314       C  0.19927009  0.19875403  0.85346951    -0.07300
C1315       C  0.22109688  0.18831013  0.83541381     0.06200
C1316       C  0.23238344  0.16080002  0.84042113    -0.02400
Br1317     Br  0.26008656  0.14327046  0.81544978    -0.02100
H1318       H  0.23177896  0.12401939  0.86786703     0.10100
H1319       H  0.19033958  0.21981513  0.84990477     0.08100
Br1320     Br  0.16135694  0.19943241  0.90178962    -0.02500
C1321       C  0.41721810  0.08853378  0.03226711    -0.09100
C1322       C  0.41729676  0.05865350  0.03529356     0.07100
C1323       C  0.39477471  0.04544838  0.05070976    -0.02900
C1324       C  0.37183748  0.06187583  0.06089617    -0.07300
C1325       C  0.37115537  0.09144282  0.05650762     0.06200
C1326       C  0.39433145  0.10490657  0.04264781    -0.02400
Br1327     Br  0.39465468  0.14531877  0.03580436    -0.02100
H1328       H  0.43451803  0.09911780  0.02091396     0.10100
H1329       H  0.35404404  0.05144785  0.07161859     0.08100
Br1330     Br  0.39448710  0.00538415  0.05951994    -0.02500
C1331       C  0.28308981  0.11803395  0.99248456    -0.09100
C1332       C  0.27467384  0.11986459  0.02136534     0.07100
C1333       C  0.24498739  0.12012508  0.02792758    -0.02900
C1334       C  0.22484035  0.12127051  0.00587698    -0.07300
C1335       C  0.23331081  0.11989372  0.97703072     0.06200
C1336       C  0.26281174  0.11688663  0.97055177    -0.02400
Br1337     Br  0.27689471  0.10836810  0.93276387    -0.02100
H1338       H  0.30561000  0.11716832  0.98677449     0.10100
H1339       H  0.20231468  0.12285229  0.01144150     0.08100
Br1340     Br  0.22998717  0.11602623  0.06610326    -0.02500
C1341       C  0.44181904  0.56074401  0.40287792    -0.09100
C1342       C  0.43442656  0.53420162  0.41505940     0.07100
C1343       C  0.41062174  0.51920577  0.40365939    -0.02900
C1344       C  0.39594899  0.53021407  0.38003016    -0.07300
C1345       C  0.40434103  0.55596478  0.36705787     0.06200
C1346       C  0.42721872  0.57155263  0.37906094    -0.02400
Br1347     Br  0.44134962  0.60625371  0.36231639    -0.02100
H1348       H  0.45987818  0.57274624  0.41115406     0.10100
H1349       H  0.37816769  0.51815957  0.37120778     0.08100
Br1350     Br  0.39644774  0.48375280  0.41892631    -0.02500
C1351       C  0.66470822  0.33523992  0.71617955    -0.09100
C1352       C  0.69433074  0.33420168  0.71036271     0.07100
C1353       C  0.70688502  0.35633132  0.69395235    -0.02900
C1354       C  0.68996953  0.37924829  0.68465040    -0.07300
C1355       C  0.66063093  0.38056457  0.69133051     0.06200
C1356       C  0.64797996  0.35830134  0.70709999    -0.02400
Br1357     Br  0.60830432  0.35946047  0.71819923    -0.02100
H1358       H  0.65467664  0.31855190  0.72876987     0.10100
H1359       H  0.69989501  0.39651590  0.67277789     0.08100
Br1360     Br  0.74666490  0.35626543  0.68285639    -0.02500
C1361       C  0.60627882  0.44018268  0.60373253    -0.09100
C1362       C  0.59397325  0.44056815  0.63111437     0.07100
C1363       C  0.56479498  0.44807700  0.63403776    -0.02900
C1364       C  0.54897557  0.45645006  0.61006850    -0.07300
C1365       C  0.56150403  0.45759594  0.58260466     0.06200
C1366       C  0.59052238  0.44858589  0.57958893    -0.02400
Br1367     Br  0.61095867  0.44804167  0.54381026    -0.02100
H1368       H  0.62868458  0.43441781  0.60125842     0.10100
H1369       H  0.52671642  0.46243189  0.61316467     0.08100
Br1370     Br  0.54530263  0.44698076  0.67033685    -0.02500
C1371       C  0.64725215  0.62800131  0.77344831    -0.09100
C1372       C  0.65313530  0.61545673  0.80005992     0.07100
C1373       C  0.67365456  0.62826924  0.81807396    -0.02900
C1374       C  0.68866968  0.65243550  0.80870442    -0.07300
C1375       C  0.68377058  0.66429330  0.78143603     0.06200
C1376       C  0.66216037  0.65210103  0.76400502    -0.02400
Br1377     Br  0.65109113  0.66698538  0.72730029    -0.02100
H1378       H  0.63113265  0.61863706  0.75963679     0.10100
H1379       H  0.70495858  0.66139489  0.82256248     0.08100
Br1380     Br  0.68376259  0.61261068  0.85464298    -0.02500
C1381       C  0.60702835  0.54717633  0.88910267    -0.09100
C1382       C  0.59242572  0.55304078  0.86360898     0.07100
C1383       C  0.56225552  0.55267866  0.86346334    -0.02900
C1384       C  0.54715275  0.54567608  0.88837830    -0.07300
C1385       C  0.56155854  0.53892984  0.91399104     0.06200
C1386       C  0.59202202  0.54010707  0.91418251    -0.02400
Br1387     Br  0.61494585  0.53082726  0.94701165    -0.02100
H1388       H  0.63030289  0.54733626  0.88927404     0.10100
H1389       H  0.52390426  0.54545270  0.88757725     0.08100
Br1390     Br  0.54072034  0.56205395  0.82982497    -0.02500
C1391       C  0.65378031  0.50771346  0.75885423    -0.09100
C1392       C  0.62704622  0.51774662  0.76857950     0.07100
C1393       C  0.60178943  0.50781217  0.75534014    -0.02900
C1394       C  0.60349018  0.48713156  0.73387980    -0.07300
C1395       C  0.63015230  0.47666233  0.72448770     0.06200
C1396       C  0.65554066  0.48761563  0.73675089    -0.02400
Br1397     Br  0.69304751  0.47777077  0.72262959    -0.02100
H1398       H  0.67340537  0.51593003  0.76820161     0.10100
H1399       H  0.58381479  0.47934369  0.72427530     0.08100
Br1400     Br  0.56466579  0.52349159  0.76377927    -0.02500
C1401       C  0.52772881  0.38185370  0.38995547    -0.09100
C1402       C  0.54858470  0.36304688  0.40046174     0.07100
C1403       C  0.56091303  0.36808938  0.42739854    -0.02900
C1404       C  0.55215833  0.39172176  0.44353418    -0.07300
C1405       C  0.53074843  0.41032319  0.43340578     0.06200
C1406       C  0.51877759  0.40541112  0.40606890    -0.02400
Br1407     Br  0.49094434  0.43040651  0.38899650    -0.02100
H1408       H  0.51800436  0.37786192  0.36928163     0.10100
H1409       H  0.56148424  0.39503910  0.46449790     0.08100
Br1410     Br  0.58823668  0.34215621  0.44370764    -0.02500
C1411       C  0.52537979  0.23804926  0.37569420    -0.09100
C1412       C  0.51559445  0.26616674  0.37230709     0.07100
C1413       C  0.48567170  0.27111299  0.37112058    -0.02900
C1414       C  0.46656961  0.24824596  0.37385427    -0.07300
C1415       C  0.47632913  0.21982620  0.37569202     0.06200
C1416       C  0.50637917  0.21499815  0.37660898    -0.02400
Br1417     Br  0.52410253  0.17802336  0.37631925    -0.02100
H1418       H  0.54820572  0.23379398  0.37698832     0.10100
H1419       H  0.44377732  0.25279414  0.37348301     0.08100
Br1420     Br  0.46909015  0.30777742  0.36273297    -0.02500
C1421       C  0.30021506  0.31345713  0.61359517    -0.09100
C1422       C  0.30359021  0.34302370  0.61559272     0.07100
C1423       C  0.30070841  0.35653620  0.64233940    -0.02900
C1424       C  0.29316618  0.34041480  0.66640847    -0.07300
C1425       C  0.28858954  0.31073285  0.66437129     0.06200
C1426       C  0.29312368  0.29715927  0.63752291    -0.02400
Br1427     Br  0.29065384  0.25663532  0.63099363    -0.02100
H1428       H  0.30288197  0.30298708  0.59306159     0.10100
H1429       H  0.29023890  0.35134524  0.68663875     0.08100
Br1430     Br  0.30516219  0.39705835  0.64676855    -0.02500
C1431       C  0.37723326  0.42189903  0.56957245    -0.09100
C1432       C  0.36585161  0.40139054  0.55098654     0.07100
C1433       C  0.38034976  0.39505438  0.52525732    -0.02900
C1434       C  0.40446307  0.41089187  0.51743949    -0.07300
C1435       C  0.41509067  0.43268116  0.53521017     0.06200
C1436       C  0.40177490  0.43740619  0.56212914    -0.02400
Br1437     Br  0.41445956  0.46543877  0.58942198    -0.02100
H1438       H  0.36639781  0.42654904  0.58959116     0.10100
H1439       H  0.41489439  0.40612607  0.49724063     0.08100
Br1440     Br  0.36881394  0.36434160  0.50047701    -0.02500
C1441       C  0.27622644  0.37240831  0.49121219    -0.09100
C1442       C  0.26751544  0.37419299  0.51999117     0.07100
C1443       C  0.23788728  0.37645088  0.52618722    -0.02900
C1444       C  0.21790385  0.37525695  0.50399852    -0.07300
C1445       C  0.22663676  0.37406849  0.47518954     0.06200
C1446       C  0.25638130  0.37353794  0.46893596    -0.02400
Br1447     Br  0.27200539  0.37754800  0.43097370    -0.02100
H1448       H  0.29882569  0.37090992  0.48582424     0.10100
H1449       H  0.19527949  0.37592574  0.50943392     0.08100
Br1450     Br  0.22303442  0.38428432  0.56380223    -0.02500
C1451       C  0.39234130  0.94415035  0.45939674    -0.09100
C1452       C  0.41654469  0.93139047  0.47202970     0.07100
C1453       C  0.41659968  0.90143429  0.47616615    -0.02900
C1454       C  0.39272377  0.88513440  0.46795315    -0.07300
C1455       C  0.36867446  0.89805544  0.45549784     0.06200
C1456       C  0.36864170  0.92774484  0.45105365    -0.02400
Br1457     Br  0.33648319  0.94667954  0.43385359    -0.02100
H1458       H  0.39188277  0.96701321  0.45584218     0.10100
H1459       H  0.39262754  0.86233062  0.47192007     0.08100
Br1460     Br  0.44747809  0.88166637  0.49481604    -0.02500
C1461       C  0.40137603  0.05330457  0.61269135    -0.09100
C1462       C  0.41707710  0.06077648  0.63708468     0.07100
C1463       C  0.44703189  0.05725017  0.63712065    -0.02900
C1464       C  0.46081605  0.04589161  0.61307016    -0.07300
C1465       C  0.44514146  0.03739543  0.58872972     0.06200
C1466       C  0.41494902  0.04145747  0.58870961    -0.02400
Br1467     Br  0.39021337  0.02924683  0.55816317    -0.02100
H1468       H  0.37818913  0.05529305  0.61290429     0.10100
H1469       H  0.48392461  0.04335048  0.61366731     0.08100
Br1470     Br  0.46981573  0.06712477  0.66985225    -0.02500
C1471       C  0.58688145  0.98073224  0.40735882    -0.09100
C1472       C  0.56277212  0.96419529  0.41473814     0.07100
C1473       C  0.55565081  0.94042574  0.39737584    -0.02900
C1474       C  0.57267606  0.93366682  0.37353359    -0.07300
C1475       C  0.59636587  0.95058406  0.36601033     0.06200
C1476       C  0.60346103  0.97429775  0.38324384    -0.02400
Br1477     Br  0.63564432  0.99867151  0.37497611    -0.02100
H1478       H  0.59284944  0.99897794  0.42033160     0.10100
H1479       H  0.56658407  0.91588030  0.35998730     0.08100
Br1480     Br  0.52153046  0.91800215  0.40300013    -0.02500
C1481       C  0.47763008  0.08342096  0.41384629    -0.09100
C1482       C  0.46208302  0.07688904  0.43878991     0.07100
C1483       C  0.43630091  0.09200570  0.44445083    -0.02900
C1484       C  0.42778695  0.11426084  0.42625196    -0.07300
C1485       C  0.44421585  0.12146918  0.40215764     0.06200
C1486       C  0.46871081  0.10514239  0.39546441    -0.02400
Br1487     Br  0.49042580  0.11136761  0.36111279    -0.02100
H1488       H  0.49687726  0.07151396  0.40851766     0.10100
H1489       H  0.40892987  0.12677018  0.43157633     0.08100
Br1490     Br  0.41281665  0.08505041  0.47758212    -0.02500
C1491       C  0.34317279  0.68766487  0.69074500    -0.09100
C1492       C  0.33017721  0.71451509  0.68614144     0.07100
C1493       C  0.34002531  0.73104217  0.66264686    -0.02900
C1494       C  0.36280742  0.72124644  0.64561457    -0.07300
C1495       C  0.37633624  0.69494921  0.65082496     0.06200
C1496       C  0.36593510  0.67786276  0.67344616    -0.02400
Br1497     Br  0.38321547  0.64192741  0.68301108    -0.02100
H1498       H  0.33605663  0.67436141  0.70833466     0.10100
H1499       H  0.37018895  0.73446962  0.62805168     0.08100
Br1500     Br  0.32328378  0.76687712  0.65145227    -0.02500
C1501       C  0.44150673  0.60459656  0.60161183    -0.09100
C1502       C  0.43357831  0.62872580  0.58569539     0.07100
C1503       C  0.43547142  0.62756498  0.55567147    -0.02900
C1504       C  0.44683319  0.60338043  0.54217937    -0.07300
C1505       C  0.45639703  0.57962576  0.55800021     0.06200
C1506       C  0.45266516  0.58010044  0.58815106    -0.02400
Br1507     Br  0.46398199  0.54920578  0.61267713    -0.02100
H1508       H  0.44038451  0.60535728  0.62476183     0.10100
H1509       H  0.44846111  0.60338817  0.51905402     0.08100
Br1510     Br  0.42313571  0.65882728  0.53218813    -0.02500
C1511       C  0.61723951  0.81131445  0.67980541    -0.09100
C1512       C  0.61260428  0.79639233  0.65417054     0.07100
C1513       C  0.63305116  0.77635157  0.64486609    -0.02900
C1514       C  0.65662394  0.77001271  0.66202623    -0.07300
C1515       C  0.66098340  0.78405142  0.68824121     0.06200
C1516       C  0.64137132  0.80554347  0.69678093    -0.02400
Br1517     Br  0.64545476  0.82691342  0.73164265    -0.02100
H1518       H  0.60187113  0.82726689  0.68675519     0.10100
H1519       H  0.67190935  0.75420477  0.65456400     0.08100
Br1520     Br  0.63076358  0.75839996  0.60802581    -0.02500
C1521       C  0.54446630  0.88276316  0.60514107    -0.09100
C1522       C  0.55681005  0.86019134  0.58978576     0.07100
C1523       C  0.56158315  0.86295390  0.56026143    -0.02900
C1524       C  0.55328123  0.88791934  0.54628627    -0.07300
C1525       C  0.53983933  0.91030701  0.56130037     0.06200
C1526       C  0.53571410  0.90766845  0.59119552    -0.02400
Br1527     Br  0.51555370  0.93550382  0.61385976    -0.02100
H1528       H  0.54024051  0.88035797  0.62782829     0.10100
H1529       H  0.55686367  0.88957068  0.52343071     0.08100
Br1530     Br  0.57853119  0.83275232  0.53815147    -0.02500
C1531       C  0.49002547  0.77332275  0.61153208    -0.09100
C1532       C  0.51867998  0.76372824  0.61224427     0.07100
C1533       C  0.52385236  0.73407630  0.61026868    -0.02900
C1534       C  0.50081375  0.71487942  0.61098119    -0.07300
C1535       C  0.47214742  0.72447593  0.61133265     0.06200
C1536       C  0.46702813  0.75417665  0.60988863    -0.02400
Br1537     Br  0.42967222  0.77011507  0.60277177    -0.02100
H1538       H  0.48531949  0.79596946  0.61201865     0.10100
H1539       H  0.50549439  0.69222682  0.61105260     0.08100
Br1540     Br  0.56135471  0.71836383  0.60353751    -0.02500
C1541       C  0.28077769  0.16072232  0.15959346    -0.09100
C1542       C  0.28717709  0.18998013  0.16075593     0.07100
C1543       C  0.30459417  0.20214966  0.13914983    -0.02900
C1544       C  0.31474619  0.18512469  0.11666392    -0.07300
C1545       C  0.30815562  0.15597549  0.11552404     0.06200
C1546       C  0.29130741  0.14369030  0.13732791    -0.02400
Br1547     Br  0.28170782  0.10383102  0.13714803    -0.02100
H1548       H  0.26774969  0.15102640  0.17619659     0.10100
H1549       H  0.32704265  0.19482407  0.09951810     0.08100
Br1550     Br  0.31331003  0.24222380  0.13793304    -0.02500
C1551       C  0.35451966  0.36246878  0.19639066    -0.09100
C1552       C  0.33902350  0.38799352  0.19376093     0.07100
C1553       C  0.30929273  0.38786077  0.19886683    -0.02900
C1554       C  0.29567346  0.36277089  0.20759314    -0.07300
C1555       C  0.31108797  0.33714323  0.21142807     0.06200
C1556       C  0.34094331  0.33710230  0.20505209    -0.02400
Br1557     Br  0.36503029  0.30393630  0.20830536    -0.02100
H1558       H  0.37746479  0.36247410  0.19245302     0.10100
H1559       H  0.27275659  0.36353345  0.21153279     0.08100
Br1560     Br  0.28626588  0.42149557  0.19386211    -0.02500
C1561       C  0.33366716  0.19111267  0.32836625    -0.09100
C1562       C  0.33859857  0.20566676  0.30238786     0.07100
C1563       C  0.36716346  0.20691620  0.29184240    -0.02900
C1564       C  0.38960970  0.19498408  0.30766412    -0.07300
C1565       C  0.38492600  0.18237818  0.33455509     0.06200
C1566       C  0.35636984  0.17970231  0.34446394    -0.02400
Br1567     Br  0.34693728  0.16304624  0.38082540    -0.02100
H1568       H  0.31205357  0.18929711  0.33678499     0.10100
H1569       H  0.41131867  0.19691078  0.29948778     0.08100
Br1570     Br  0.37833212  0.22628344  0.25726517    -0.02500
C1571       C  0.21501333  0.33890008  0.33247197    -0.09100
C1572       C  0.21458008  0.30885556  0.33347082     0.07100
C1573       C  0.20275380  0.29531668  0.35790174    -0.02900
C1574       C  0.19215102  0.31178035  0.38057151    -0.07300
C1575       C  0.19321980  0.34164705  0.37970886     0.06200
C1576       C  0.20491886  0.35524940  0.35550637    -0.02400
Br1577     Br  0.20996130  0.39591587  0.35416443    -0.02100
H1578       H  0.22423802  0.34975015  0.31415958     0.10100
H1579       H  0.18379020  0.30119634  0.39945008     0.08100
Br1580     Br  0.19996129  0.25455995  0.36197619    -0.02500
C1581       C  0.22904108  0.66515975  0.16246328    -0.09100
C1582       C  0.21138573  0.68800010  0.17100083     0.07100
C1583       C  0.18436573  0.69136745  0.15735107    -0.02900
C1584       C  0.17677056  0.67337446  0.13453619    -0.07300
C1585       C  0.19545928  0.65190758  0.12498580     0.06200
C1586       C  0.22130493  0.64720462  0.13991403    -0.02400
Br1587     Br  0.24711941  0.61664250  0.13022280    -0.02100
H1588       H  0.24934699  0.66140291  0.17308247     0.10100
H1589       H  0.15684663  0.67714769  0.12321863     0.08100
Br1590     Br  0.15746470  0.72103407  0.16690492    -0.02500
C1591       C  0.14404723  0.69833097  0.35651361    -0.09100
C1592       C  0.11762644  0.69496410  0.34264520     0.07100
C1593       C  0.11582496  0.70020934  0.31306819    -0.02900
C1594       C  0.13984894  0.71010268  0.29818056    -0.07300
C1595       C  0.16614244  0.71493050  0.31216178     0.06200
C1596       C  0.16825537  0.70822801  0.34169807    -0.02400
Br1597     Br  0.20248261  0.71365704  0.36402714    -0.02100
H1598       H  0.14549086  0.69457607  0.37934631     0.10100
H1599       H  0.13776455  0.71424697  0.27547754     0.08100
Br1600     Br  0.08100468  0.69418452  0.29196841    -0.02500
C1601       C  0.36183657  0.64387580  0.28295894    -0.09100
C1602       C  0.35052143  0.62446862  0.30291431     0.07100
C1603       C  0.32315126  0.62949771  0.31465170    -0.02900
C1604       C  0.30709915  0.65303795  0.30559388    -0.07300
C1605       C  0.31777047  0.67186346  0.28466574     0.06200
C1606       C  0.34586867  0.66763384  0.27401995    -0.02400
Br1607     Br  0.36399574  0.69414327  0.24837100    -0.02100
H1608       H  0.38298557  0.64022962  0.27394537     0.10100
H1609       H  0.28568490  0.65601775  0.31422191     0.08100
Br1610     Br  0.30589435  0.60354103  0.34141112    -0.02500
C1611       C  0.29112203  0.83847690  0.34131996    -0.09100
C1612       C  0.28901932  0.80846446  0.34064229     0.07100
C1613       C  0.29775494  0.79283346  0.36516688    -0.02900
C1614       C  0.30713483  0.80727824  0.38958683    -0.07300
C1615       C  0.30834018  0.83710338  0.39037568     0.06200
C1616       C  0.30048467  0.85278784  0.36596659    -0.02400
Br1617     Br  0.30003892  0.89376821  0.36620535    -0.02100
H1618       H  0.28457039  0.85097298  0.32297212     0.10100
H1619       H  0.31293429  0.79514308  0.40844531     0.08100
Br1620     Br  0.29796067  0.75178405  0.36750291    -0.02500
C1621       C  0.20836324  0.86608383  0.20830282    -0.09100
C1622       C  0.19257385  0.84080928  0.21296798     0.07100
C1623       C  0.16301674  0.84054151  0.20551871    -0.02900
C1624       C  0.15005129  0.86535624  0.19481262    -0.07300
C1625       C  0.16581686  0.89060813  0.19139225     0.06200
C1626       C  0.19529869  0.89071595  0.19772061    -0.02400
Br1627     Br  0.21867492  0.92407693  0.19216650    -0.02100
H1628       H  0.23109478  0.86691694  0.21307717     0.10100
H1629       H  0.12727405  0.86526267  0.19012542     0.12900
Br1630     Br  0.13832619  0.80802917  0.21053910    -0.02500
C1631       C  0.10740398  0.04295440  0.38847714    -0.09100
C1632       C  0.09309604  0.05230391  0.36387745     0.07100
C1633       C  0.06293009  0.05105480  0.36301367    -0.02900
C1634       C  0.04751636  0.04064014  0.38656193    -0.07300
C1635       C  0.06164568  0.03116587  0.41143327     0.06200
C1636       C  0.09210276  0.03235928  0.41210685    -0.02400
Br1637     Br  0.11456148  0.01834362  0.44356174    -0.02100
H1638       H  0.13066685  0.04314635  0.38897453     0.10100
H1639       H  0.02428955  0.04020032  0.38541305     0.08100
Br1640     Br  0.04193551  0.06354798  0.33001643    -0.02500
C1641       C  0.16021169  0.16299657  0.27461477    -0.09100
C1642       C  0.18734429  0.16760584  0.28689939     0.07100
C1643       C  0.19608966  0.14989370  0.30986164    -0.02900
C1644       C  0.17845653  0.12733628  0.31888534    -0.07300
C1645       C  0.15208884  0.12200293  0.30554830     0.06200
C1646       C  0.14260592  0.14057393  0.28384649    -0.02400
Br1647     Br  0.10601233  0.13549242  0.26569572    -0.02100
H1648       H  0.15278395  0.17667416  0.25746487     0.10100
H1649       H  0.18616229  0.11281757  0.33520694     0.08100
Br1650     Br  0.23301088  0.15318667  0.32786469    -0.02500
C1651       C  0.10464781  0.01917964  0.25203854    -0.09100
C1652       C  0.12949386  0.02621728  0.26731277     0.07100
C1653       C  0.15585382  0.01361038  0.25973990    -0.02900
C1654       C  0.15695405  0.99401132  0.23722852    -0.07300
C1655       C  0.13204005  0.98656925  0.22198504     0.06200
C1656       C  0.10563860  0.99956198  0.22950190    -0.02400
Br1657     Br  0.06981689  0.99030359  0.21140298    -0.02100
H1658       H  0.08431679  0.02890707  0.25783525     0.10100
H1659       H  0.17738818  0.98433876  0.23172871     0.08100
Br1660     Br  0.19059582  0.02145749  0.28035514    -0.02500
C1661       C  0.54518489  0.64454591  0.06347134    -0.09100
C1662       C  0.55282897  0.64126426  0.09233205     0.07100
C1663       C  0.55159883  0.61389360  0.10491250    -0.02900
C1664       C  0.54250016  0.59050117  0.08864888    -0.07300
C1665       C  0.53445397  0.59403063  0.06002740     0.06200
C1666       C  0.53604601  0.62115754  0.04731428    -0.02400
Br1667     Br  0.52489468  0.62727684  0.00829391    -0.02100
H1668       H  0.54575437  0.66550944  0.05366458     0.10100
H1669       H  0.54115547  0.56959455  0.09850641     0.08100
Br1670     Br  0.55975103  0.60762774  0.14467420    -0.02500
C1671       C  0.62535183  0.68358948  0.17879843    -0.09100
C1672       C  0.61689356  0.69991132  0.15525931     0.07100
C1673       C  0.63385320  0.72316372  0.14644970    -0.02900
C1674       C  0.65794655  0.73099365  0.16237224    -0.07300
C1675       C  0.66587040  0.71556721  0.18688920     0.06200
C1676       C  0.64970621  0.69104226  0.19459682    -0.02400
Br1677     Br  0.65796133  0.66786268  0.22752059    -0.02100
H1678       H  0.61231248  0.66562153  0.18555703     0.10100
H1679       H  0.67041857  0.74935418  0.15563817     0.08100
Br1680     Br  0.62486060  0.74461850  0.11263764    -0.02500
C1681       C  0.46480713  0.88813495  0.10133644    -0.09100
C1682       C  0.44421401  0.86939824  0.09014027     0.07100
C1683       C  0.43320266  0.87424463  0.06259025    -0.02900
C1684       C  0.44291417  0.89770412  0.04666655    -0.07300
C1685       C  0.46407483  0.91619984  0.05760426     0.06200
C1686       C  0.47479467  0.91136096  0.08543893    -0.02400
Br1687     Br  0.50232215  0.93603561  0.10352924    -0.02100
H1688       H  0.47346966  0.88439059  0.12251411     0.10100
H1689       H  0.43460420  0.90092779  0.02527435     0.08100
Br1690     Br  0.40656827  0.84826431  0.04521615    -0.02500
C1691       C  0.35561816  0.80077597  0.14161518    -0.09100
C1692       C  0.37907909  0.81351049  0.15542110     0.07100
C1693       C  0.37829531  0.81743697  0.18526937    -0.02900
C1694       C  0.35443753  0.80828732  0.20092286    -0.07300
C1695       C  0.33161683  0.79416640  0.18740570     0.06200
C1696       C  0.33204444  0.79082374  0.15741041    -0.02400
Br1697     Br  0.30114786  0.77282921  0.13710680    -0.02100
H1698       H  0.35630622  0.79727032  0.11869844     0.10100
H1699       H  0.35436962  0.81091588  0.22396823     0.08100
Br1700     Br  0.41020775  0.83336403  0.20575426    -0.02500
C1701       C  0.46805936  0.74841660  0.13096631    -0.09100
C1702       C  0.47624101  0.77725515  0.13191408     0.07100
C1703       C  0.50546408  0.78410347  0.13578354    -0.02900
C1704       C  0.52605839  0.76244713  0.13521410    -0.07300
C1705       C  0.51804408  0.73352369  0.13296786     0.06200
C1706       C  0.48843914  0.72664212  0.13253499    -0.02400
Br1707     Br  0.47384976  0.68838435  0.13641163    -0.02100
H1708       H  0.44561040  0.74268634  0.12905513     0.10100
H1709       H  0.54846419  0.76846141  0.13636989     0.08100
Br1710     Br  0.51842811  0.82220084  0.14415524    -0.02500
C1711       C  0.02458682  0.59495856  0.41601034    -0.09100
C1712       C  0.03894160  0.58752944  0.44138106     0.07100
C1713       C  0.06298073  0.60415600  0.44987201    -0.02900
C1714       C  0.07147191  0.62784626  0.43351753    -0.07300
C1715       C  0.05655964  0.63542136  0.40868640     0.06200
C1716       C  0.03327672  0.61847528  0.39968778    -0.02400
Br1717     Br  0.01286394  0.62659058  0.36496664    -0.02100
H1718       H  0.00648752  0.58237565  0.40872879     0.10100
H1719       H  0.08919787  0.64099305  0.44073281     0.08100
Br1720     Br  0.08405928  0.59730966  0.48448277    -0.02500
C1721       C  0.05309146  0.55162448  0.60685303    -0.09100
C1722       C  0.06453288  0.53256573  0.58657044     0.07100
C1723       C  0.09264392  0.52196118  0.59033932    -0.02900
C1724       C  0.10858684  0.53033830  0.61422575    -0.07300
C1725       C  0.09706639  0.54932413  0.63441807     0.06200
C1726       C  0.06919797  0.56014531  0.63058869    -0.02400
Br1727     Br  0.05194903  0.58559750  0.65781551    -0.02100
H1728       H  0.03152463  0.55989188  0.60424211     0.10100
H1729       H  0.12984322  0.52150288  0.61744392     0.08100
Br1730     Br  0.10948153  0.49420221  0.56507284    -0.02500
C1731       C  0.08649830  0.41105044  0.46685483    -0.09100
C1732       C  0.08473351  0.44009551  0.45955385     0.07100
C1733       C  0.10625632  0.45200443  0.44176568    -0.02900
C1734       C  0.12909428  0.43498678  0.43214009    -0.07300
C1735       C  0.13123148  0.40630152  0.44032937     0.06200
C1736       C  0.10975979  0.39435559  0.45789060    -0.02400
Br1737     Br  0.11245494  0.35592250  0.47187834    -0.02100
H1738       H  0.07042888  0.40161008  0.48073987     0.10100
H1739       H  0.14585362  0.44445294  0.41911030     0.08100
Br1740     Br  0.10575732  0.49120797  0.42975408    -0.02500
C1741       C  0.91132652  0.48186648  0.41303964    -0.09100
C1742       C  0.93368900  0.46397937  0.42234366     0.07100
C1743       C  0.93627652  0.43641222  0.40990146    -0.02900
C1744       C  0.91865127  0.42873717  0.38691535    -0.07300
C1745       C  0.89793665  0.44763520  0.37634596     0.06200
C1746       C  0.89329889  0.47375343  0.39062303    -0.02400
Br1747     Br  0.86235505  0.49893458  0.38056071    -0.02100
H1748       H  0.90790347  0.50246167  0.42307507     0.10100
H1749       H  0.92211524  0.40841780  0.37632242     0.08100
Br1750     Br  0.96409027  0.40842672  0.42160673    -0.02500
C1751       C  0.96824382  0.41589711  0.59346225    -0.09100
C1752       C  0.96469988  0.41554590  0.56356421     0.07100
C1753       C  0.95208191  0.39118736  0.55069703    -0.02900
C1754       C  0.94471696  0.36754635  0.56746037    -0.07300
C1755       C  0.94937181  0.36759446  0.59702301     0.06200
C1756       C  0.96087502  0.39211254  0.61013991    -0.02400
Br1757     Br  0.96833688  0.39339690  0.65047047    -0.02100
H1758       H  0.97776451  0.43430432  0.60380459     0.10100
H1759       H  0.93580086  0.34873776  0.55728810     0.08100
Br1760     Br  0.94342584  0.38880519  0.51057980    -0.02500
C1761       C  0.69776107  0.64199119  0.35461248    -0.09100
C1762       C  0.68743402  0.65518058  0.37943485     0.07100
C1763       C  0.68667453  0.68518663  0.38089949    -0.02900
C1764       C  0.69654447  0.70150999  0.35777183    -0.07300
C1765       C  0.70793626  0.68840116  0.33310242     0.06200
C1766       C  0.70837716  0.65814159  0.33176242    -0.02400
Br1767     Br  0.72623915  0.63700179  0.30136650    -0.02100
H1768       H  0.69936272  0.61890093  0.35379267     0.10100
H1769       H  0.69586594  0.72458600  0.35940079     0.08100
Br1770     Br  0.67334658  0.70464989  0.41454622    -0.02500
C1771       C  0.61436469  0.59520928  0.46204495    -0.09100
C1772       C  0.63087302  0.58526313  0.43895978     0.07100
C1773       C  0.62363996  0.55915844  0.42585922    -0.02900
C1774       C  0.60022526  0.54330589  0.43623345    -0.07300
C1775       C  0.58377531  0.55336573  0.45943586     0.06200
C1776       C  0.59101943  0.57955594  0.47231144    -0.02400
Br1777     Br  0.57137470  0.59358384  0.50566487    -0.02100
H1778       H  0.62027521  0.61491138  0.47273106     0.10100
H1779       H  0.59489753  0.52308726  0.42625139     0.08100
Br1780     Br  0.64595984  0.54391605  0.39486347    -0.02500
C1781       C  0.77439044  0.64986723  0.62572071    -0.09100
C1782       C  0.80019924  0.65642450  0.61164008     0.07100
C1783       C  0.81782059  0.67819702  0.62286488    -0.02900
C1784       C  0.80911878  0.69321305  0.64742530    -0.07300
C1785       C  0.78274129  0.68727381  0.66105571     0.06200
C1786       C  0.76551036  0.66486509  0.65002690    -0.02400
Br1787     Br  0.72983398  0.65262782  0.66691977    -0.02100
H1788       H  0.76082513  0.63291197  0.61755760     0.10100
H1789       H  0.82267046  0.71029287  0.65530285     0.08100
Br1790     Br  0.85268133  0.68994637  0.60429125    -0.02500
C1791       C  0.87670075  0.57630446  0.57002981    -0.09100
C1792       C  0.86538516  0.59559819  0.55009171     0.07100
C1793       C  0.88020586  0.60003626  0.52411901    -0.02900
C1794       C  0.90495557  0.58435025  0.51796919    -0.07300
C1795       C  0.91581436  0.56398075  0.53723761     0.06200
C1796       C  0.90160812  0.56051005  0.56394536    -0.02400
Br1797     Br  0.91360998  0.53384871  0.59277352    -0.02100
H1798       H  0.86553802  0.57278347  0.59009194     0.10100
H1799       H  0.91560929  0.58804744  0.49767547     0.08100
Br1800     Br  0.86815639  0.62777989  0.49631774    -0.02500
C1801       C  0.77574886  0.62255180  0.48750862    -0.09100
C1802       C  0.76719552  0.62094419  0.51634064     0.07100
C1803       C  0.73772443  0.61755396  0.52270500    -0.02900
C1804       C  0.71759565  0.61753271  0.50061250    -0.07300
C1805       C  0.72611035  0.61913737  0.47176663     0.06200
C1806       C  0.75574802  0.62089654  0.46532301    -0.02400
Br1807     Br  0.77086699  0.61859018  0.42705124    -0.02100
H1808       H  0.79828378  0.62471867  0.48209345     0.10100
H1809       H  0.69504490  0.61589863  0.50613854     0.08100
Br1810     Br  0.72348718  0.61019695  0.56062371    -0.02500
C1811       C  0.66289678  0.16214115  0.22561310    -0.09100
C1812       C  0.68897282  0.16781954  0.21157759     0.07100
C1813       C  0.69672138  0.15094191  0.18761794    -0.02900
C1814       C  0.67867792  0.12867791  0.17864048    -0.07300
C1815       C  0.65307144  0.12259224  0.19329899     0.06200
C1816       C  0.64504173  0.13987584  0.21671800    -0.02400
Br1817     Br  0.60993638  0.13382560  0.23751686    -0.02100
H1818       H  0.65634600  0.17505276  0.24374799     0.10100
H1819       H  0.68543322  0.11506651  0.16110429     0.08100
Br1820     Br  0.73283374  0.15512294  0.16805214    -0.02500
C1821       C  0.70517609  0.34163641  0.16768009    -0.09100
C1822       C  0.71194486  0.31254360  0.16362417     0.07100
C1823       C  0.70733941  0.30057370  0.13605705    -0.02900
C1824       C  0.69725298  0.31772196  0.11366917    -0.07300
C1825       C  0.69149330  0.34687827  0.11760807     0.06200
C1826       C  0.69526092  0.35873971  0.14509573    -0.02400
Br1827     Br  0.68967389  0.39867774  0.15254325    -0.02100
H1828       H  0.70838023  0.35151067  0.18839512     0.10100
H1829       H  0.69446970  0.30829738  0.09266531     0.08100
Br1830     Br  0.71423774  0.26117877  0.12654218    -0.02500
C1831       C  0.64661723  0.30800534  0.30136614    -0.09100
C1832       C  0.66318972  0.28480335  0.31105393     0.07100
C1833       C  0.65422133  0.27018589  0.33602219    -0.02900
C1834       C  0.62867914  0.27807456  0.34978213    -0.07300
C1835       C  0.61178687  0.30063214  0.33951633     0.06200
C1836       C  0.62110833  0.31589694  0.31528915    -0.02400
Br1837     Br  0.59873178  0.34628491  0.29924067    -0.02100
H1838       H  0.65296991  0.31948793  0.28225825     0.10100
H1839       H  0.62187569  0.26646707  0.36867388     0.08100
Br1840     Br  0.67622509  0.24011546  0.35334143    -0.02500
C1841       C  0.79687633  0.36339359  0.29280920    -0.09100
C1842       C  0.81095482  0.33724140  0.28775320     0.07100
C1843       C  0.84073303  0.33526141  0.29424375    -0.02900
C1844       C  0.85537669  0.35908298  0.30503721    -0.07300
C1845       C  0.84123711  0.38511000  0.30915854     0.06200
C1846       C  0.81173944  0.38714058  0.30316431    -0.02400
Br1847     Br  0.79095382  0.42221156  0.30830204    -0.02100
H1848       H  0.77417521  0.36565371  0.28837648     0.10100
H1849       H  0.87824456  0.35765839  0.30905577     0.08100
Br1850     Br  0.86375362  0.30178346  0.28762302    -0.02500
C1851       C  0.72432938  0.15654721  0.66663118    -0.09100
C1852       C  0.71694016  0.18562087  0.66721576     0.07100
C1853       C  0.69944201  0.19673780  0.64523059    -0.02900
C1854       C  0.69053583  0.17903855  0.62275073    -0.07300
C1855       C  0.69839831  0.15016394  0.62196591     0.06200
C1856       C  0.71499851  0.13880115  0.64436555    -0.02400
Br1857     Br  0.72621455  0.09937318  0.64472862    -0.02100
H1858       H  0.73747962  0.14762844  0.68350767     0.10100
H1859       H  0.67838213  0.18809153  0.60521511     0.08100
Br1860     Br  0.68930228  0.23643525  0.64334893    -0.02500
C1861       C  0.62499546  0.09468932  0.53353156    -0.09100
C1862       C  0.63931641  0.08586759  0.55837194     0.07100
C1863       C  0.62846274  0.06247159  0.57385040    -0.02900
C1864       C  0.60397197  0.04803590  0.56396249    -0.07300
C1865       C  0.58988272  0.05642775  0.53858950     0.06200
C1866       C  0.60057901  0.08045758  0.52359486    -0.02400
Br1867     Br  0.58289191  0.09597445  0.48989432    -0.02100
H1868       H  0.63307550  0.11284591  0.52158392     0.10100
H1869       H  0.59635378  0.02969745  0.57589424     0.08100
Br1870     Br  0.64734758  0.04836406  0.60743756    -0.02500
C1871       C  0.87473948  0.07180651  0.42933367    -0.09100
C1872       C  0.87105573  0.09889705  0.44150395     0.07100
C1873       C  0.89180418  0.10953407  0.46052150    -0.02900
C1874       C  0.91483371  0.09230624  0.46871889    -0.07300
C1875       C  0.91795287  0.06452828  0.45775758     0.06200
C1876       C  0.89810680  0.05463742  0.43704730    -0.02400
Br1877     Br  0.89998539  0.01718481  0.42029267    -0.02100
H1878       H  0.85870661  0.06351176  0.41475333     0.10100
H1879       H  0.93018221  0.10055007  0.48403356     0.08100
Br1880     Br  0.88909588  0.14733180  0.47618801    -0.02500
C1881       C  0.81375600  0.18943586  0.38121936    -0.09100
C1882       C  0.80505112  0.16098430  0.38438543     0.07100
C1883       C  0.78755687  0.14833794  0.36339496    -0.02900
C1884       C  0.77850907  0.16436337  0.33985413    -0.07300
C1885       C  0.78703020  0.19293872  0.33660340     0.06200
C1886       C  0.80500033  0.20545610  0.35749928    -0.02400
Br1887     Br  0.81639087  0.24485883  0.35602605    -0.02100
H1888       H  0.82684399  0.19938248  0.39758238     0.10100
H1889       H  0.76490779  0.15440618  0.32392137     0.08100
Br1890     Br  0.77553940  0.10922781  0.36614854    -0.02500
C1891       C  0.78418002  0.12574483  0.50917395    -0.09100
C1892       C  0.77510684  0.12524290  0.48049819     0.07100
C1893       C  0.74555230  0.12164315  0.47473688    -0.02900
C1894       C  0.72584100  0.12059528  0.49727853    -0.07300
C1895       C  0.73485620  0.12089982  0.52599483     0.06200
C1896       C  0.76464040  0.12267452  0.53174495    -0.02400
Br1897     Br  0.78072383  0.11815029  0.56934377    -0.02100
H1898       H  0.80678994  0.12792026  0.51414635     0.10100
H1899       H  0.70323360  0.11899279  0.49214303     0.08100
Br1900     Br  0.73063822  0.11488213  0.43700727    -0.02500
C1901       C  0.86080886  0.19994600  0.14533447    -0.09100
C1902       C  0.88453177  0.18934360  0.16030853     0.07100
C1903       C  0.88403496  0.18938090  0.19039072    -0.02900
C1904       C  0.86029993  0.20058233  0.20502870    -0.07300
C1905       C  0.83675161  0.21218895  0.19015369     0.06200
C1906       C  0.83713103  0.21148472  0.15982131    -0.02400
Br1907     Br  0.80772710  0.22832350  0.13647517    -0.02100
H1908       H  0.86148330  0.20084898  0.12216607     0.10100
H1909       H  0.86048362  0.20050637  0.22820804     0.08100
Br1910     Br  0.91577576  0.17508033  0.21222845    -0.02500
C1911       C  0.06829134  0.38042431  0.08028330    -0.09100
C1912       C  0.05011811  0.37165389  0.10254556     0.07100
C1913       C  0.02478878  0.38721340  0.10806970    -0.02900
C1914       C  0.01731645  0.41009110  0.09047113    -0.07300
C1915       C  0.03474750  0.41819897  0.06722795     0.06200
C1916       C  0.06092659  0.40340595  0.06261944    -0.02400
Br1917     Br  0.08685816  0.41161687  0.03162967    -0.02100
H1918       H  0.08773603  0.36850556  0.07579720     0.10100
H1919       H  0.99756421  0.42148638  0.09497411     0.08100
Br1920     Br  0.99977063  0.37846185  0.13963928    -0.02500
C1921       C  0.15200900  0.31165648  0.19541571    -0.09100
C1922       C  0.16628730  0.28686517  0.18578596     0.07100
C1923       C  0.15622890  0.27317949  0.16076503    -0.02900
C1924       C  0.13144033  0.28322389  0.14719437    -0.07300
C1925       C  0.11644855  0.30704242  0.15780147     0.06200
C1926       C  0.12730099  0.32172461  0.18167900    -0.02400
Br1927     Br  0.10792596  0.35416912  0.19776333    -0.02100
H1928       H  0.15936840  0.32265364  0.21434275     0.10100
H1929       H  0.12351357  0.27212038  0.12856646     0.08100
Br1930     Br  0.17552797  0.24132394  0.14330493    -0.02500
C1931       C  0.99013447  0.27972094  0.13193535    -0.09100
C1932       C  0.01947838  0.27316773  0.12937881     0.07100
C1933       C  0.02755626  0.24448928  0.12448698    -0.02900
C1934       C  0.00678086  0.22302035  0.12474558    -0.07300
C1935       C  0.97740440  0.22944403  0.12739251     0.06200
C1936       C  0.96913618  0.25848042  0.12987166    -0.02400
Br1937     Br  0.92996126  0.27140972  0.12752888    -0.02100
H1938       H  0.98335413  0.30165959  0.13492117     0.10100
H1939       H  0.01381368  0.20110593  0.12236468     0.08100
Br1940     Br  0.06591686  0.23317487  0.11414871    -0.02500
C1941       C  0.11951222  0.10367225  0.96641865    -0.09100
C1942       C  0.13529605  0.09515699  0.94232008     0.07100
C1943       C  0.12555814  0.07187990  0.92593964    -0.02900
C1944       C  0.10098233  0.05679585  0.93454908    -0.07300
C1945       C  0.08581230  0.06443604  0.95954246     0.06200
C1946       C  0.09494149  0.08882724  0.97504822    -0.02400
Br1947     Br  0.07502598  0.10371077  0.00795893    -0.02100
H1948       H  0.12673770  0.12177203  0.97897085     0.10100
H1949       H  0.09446065  0.03828025  0.92225865     0.08100
Br1950     Br  0.14643205  0.05847296  0.89312820    -0.02500
C1951       C  0.09001781  0.93241012  0.11344456    -0.09100
C1952       C  0.11031181  0.95235640  0.12303254     0.07100
C1953       C  0.11414961  0.97783393  0.10749203    -0.02900
C1954       C  0.09553732  0.98447421  0.08507586    -0.07300
C1955       C  0.07345922  0.96563482  0.07685741     0.06200
C1956       C  0.07200514  0.93849013  0.09027855    -0.02400
Br1957     Br  0.04578031  0.90874308  0.07922980    -0.02100
H1958       H  0.08733564  0.91239488  0.12477221     0.10100
H1959       H  0.09830440  0.00470784  0.07418293     0.08100
Br1960     Br  0.14501112  0.00390593  0.11546683    -0.02500
C1961       C  0.94308237  0.10054666  0.05287073    -0.09100
C1962       C  0.96744760  0.08486201  0.06140917     0.07100
C1963       C  0.98160079  0.09291918  0.08695387    -0.02900
C1964       C  0.97194515  0.11659938  0.10254338    -0.07300
C1965       C  0.94810654  0.13252970  0.09357494     0.06200
C1966       C  0.93347373  0.12423105  0.06863067    -0.02400
Br1967     Br  0.90150600  0.14569202  0.05434273    -0.02100
H1968       H  0.93188010  0.09488943  0.03338041     0.10100
H1969       H  0.98326181  0.12278736  0.12182314     0.08100
Br1970     Br  0.01346275  0.07212040  0.10266971    -0.02500
C1971       C  0.88989831  0.95496883  0.03951586    -0.09100
C1972       C  0.91711388  0.94184060  0.04051617     0.07100
C1973       C  0.91897983  0.91407698  0.05259504    -0.02900
C1974       C  0.89390541  0.89972752  0.06119699    -0.07300
C1975       C  0.86671881  0.91241525  0.05850145     0.06200
C1976       C  0.86506248  0.94078558  0.04853102    -0.02400
Br1977     Br  0.82962738  0.96181980  0.04750443    -0.02100
H1978       H  0.88765537  0.97649382  0.03136683     0.10100
H1979       H  0.89559133  0.87806652  0.06915592     0.08100
Br1980     Br  0.95449978  0.89390752  0.05803537    -0.02500
C1981       C  0.95386527  0.03935920  0.88573797    -0.09100
C1982       C  0.94011988  0.03374658  0.91207938     0.07100
C1983       C  0.90993934  0.03787885  0.91385420    -0.02900
C1984       C  0.89454176  0.04654377  0.88963604    -0.07300
C1985       C  0.90834694  0.05125753  0.86339800     0.06200
C1986       C  0.93831750  0.04808055  0.86165960    -0.02400
Br1987     Br  0.95899647  0.05631980  0.82706807    -0.02100
H1988       H  0.97692793  0.03705087  0.88374818     0.10100
H1989       H  0.87142743  0.04889838  0.89108327     0.08100
Br1990     Br  0.88759918  0.03108872  0.94783144    -0.02500
C1991       C  0.05500082  0.86252766  0.93787675    -0.09100
C1992       C  0.05235788  0.86268324  0.90804384     0.07100
C1993       C  0.04456300  0.88810902  0.89408142    -0.02900
C1994       C  0.03803191  0.91251232  0.91011363    -0.07300
C1995       C  0.03916264  0.91214676  0.94018047     0.06200
C1996       C  0.04896119  0.88702608  0.95400023    -0.02400
Br1997     Br  0.05566410  0.88471304  0.99451526    -0.02100
H1998       H  0.06145060  0.84309195  0.94869709     0.10100
H1999       H  0.03093657  0.93152820  0.89898230     0.08100
Br2000     Br  0.04048068  0.88987462  0.85326982    -0.02500
loop_ 
_geom_bond_atom_site_label_1 
_geom_bond_atom_site_label_2 
_geom_bond_distance 
_geom_bond_site_symmetry_2 
_ccdc_geom_bond_type 
Zn1           O5   1.971       .  S
Zn1           O6   2.033   1_455  S
Zn1          O10   2.037   1_545  S
Zn1          O17   2.036       .  S
Zn2           O5   1.958   1_654  S
Zn2           O7   2.021   1_545  S
Zn2           O9   2.026   1_554  S
Zn2          O13   2.026       .  S
Zn3           O5   1.963   1_564  S
Zn3           O8   2.007   1_554  S
Zn3          O11   2.035   1_455  S
Zn3          O14   2.011       .  S
Zn4           O5   1.951   1_554  S
Zn4          O12   2.016       .  S
Zn4          O15   2.026       .  S
Zn4          O16   2.003   1_554  S
O6           C18   1.277       .  A
O7           C19   1.276       .  A
O8           C20   1.272       .  A
O9           C18   1.274       .  A
O10          C20   1.277       .  A
O11          C19   1.274       .  A
O12          C21   1.274   1_545  A
O13          C22   1.274       .  A
O14          C21   1.270       .  A
O15          C22   1.274   1_455  A
O16          C23   1.271       .  A
O17          C23   1.275       .  A
C18        C1982   1.495       .  S
C19        C1972   1.498       .  S
C20        C1995   1.486       .  S
C21        C1955   1.490       .  S
C22        C1962   1.490       .  S
C23        C1945   1.488       .  S
C24        C1912   1.479       .  S
C24          C25   1.407       .  A
C24          C29   1.403       .  A
C25          C26   1.406       .  A
C25          H30   1.082       .  S
C26        C1925   1.479       .  S
C26          C27   1.400       .  A
C27          C28   1.400       .  A
C27          H31   1.084       .  S
C28        C1932   1.486       .  S
C28          C29   1.402       .  A
C29          H32   1.083       .  S
C33        C1965   1.481       .  S
C33          C34   1.403       .  A
C33          C38   1.407       .  A
C34          C35   1.407       .  A
C34          H39   1.083       .  S
C35        C1935   1.490       .  S
C35          C36   1.400       .  A
C36          C37   1.399       .  A
C36          H40   1.083       .  S
C37        C1902   1.476       .  S
C37          C38   1.406       .  A
C38          H41   1.084       .  S
C42        C1882   1.472       .  S
C42          C43   1.402       .  A
C42          C47   1.403       .  A
C43          C44   1.404       .  A
C43          H48   1.083       .  S
C44        C1892   1.488       .  S
C44          C45   1.404       .  A
C45          C46   1.401       .  A
C45          H49   1.084       .  S
C46        C1872   1.471       .  S
C46          C47   1.401       .  A
C47          H50   1.083       .  S
C51        C1862   1.483       .  S
C51          C52   1.408       .  A
C51          C56   1.403       .  A
C52          C53   1.406       .  A
C52          H57   1.083       .  S
C53        C1855   1.476       .  S
C53          C54   1.400       .  A
C54          C55   1.402       .  A
C54          H58   1.083       .  S
C55        C1895   1.491       .  S
C55          C56   1.405       .  A
C56          H59   1.084       .  S
Zn60         O64   1.958       .  S
Zn60         O65   2.010       .  S
Zn60         O69   2.017       .  S
Zn60         O76   2.023       .  S
Zn61         O64   1.961       .  S
Zn61         O66   2.029       .  S
Zn61         O68   2.023       .  S
Zn61         O72   2.022       .  S
Zn62         O64   1.963       .  S
Zn62         O67   2.027       .  S
Zn62         O70   2.010       .  S
Zn62         O73   2.005       .  S
Zn63         O64   1.969       .  S
Zn63         O71   2.032       .  S
Zn63         O74   2.032       .  S
Zn63         O75   2.046       .  S
O65          C77   1.271       .  A
O66          C78   1.275       .  A
O67          C79   1.275       .  A
O68          C77   1.275       .  A
O69          C79   1.272       .  A
O70          C78   1.271       .  A
O71          C80   1.277       .  A
O72          C81   1.274       .  A
O73          C80   1.271       .  A
O74          C81   1.275       .  A
O75          C82   1.277       .  A
O76          C82   1.273       .  A
C77        C1812   1.483       .  S
C78        C1885   1.477       .  S
C79        C1905   1.489       .  S
C80        C1842   1.492       .  S
C81        C1832   1.488       .  S
C82        C1822   1.500       .  S
C83        C1782   1.486       .  S
C83          C84   1.408       .  A
C83          C88   1.405       .  A
C84          C85   1.407       .  A
C84          H89   1.083       .  S
C85        C1792   1.484       .  S
C85          C86   1.402       .  A
C86          C87   1.401       .  A
C86          H90   1.084       .  S
C87        C1802   1.486       .  S
C87          C88   1.402       .  A
C88          H91   1.083       .  S
C92        C1772   1.476       .  S
C92          C93   1.400       .  A
C92          C97   1.406       .  A
C93          C94   1.403       .  A
C93          H98   1.084       .  S
C94        C1805   1.487       .  S
C94          C95   1.401       .  A
C95          C96   1.401       .  A
C95          H99   1.083       .  S
C96        C1762   1.475       .  S
C96          C97   1.406       .  A
C97         H100   1.083       .  S
Zn101       O105   1.960   1_655  S
Zn101       O106   2.027       .  S
Zn101       O110   2.044   1_655  S
Zn101       O117   2.020       .  S
Zn102       O105   1.956   1_655  S
Zn102       O107   2.023   1_655  S
Zn102       O109   1.997       .  S
Zn102       O113   2.009       .  S
Zn103       O105   1.959       .  S
Zn103       O108   2.019       .  S
Zn103       O111   2.020       .  S
Zn103       O114   2.013       .  S
Zn104       O105   1.967   1_655  S
Zn104       O112   2.013   1_655  S
Zn104       O115   2.036       .  S
Zn104       O116   2.024       .  S
O106        C118   1.276       .  A
O107        C119   1.274       .  A
O108        C120   1.272       .  A
O109        C118   1.269       .  A
O110        C120   1.277       .  A
O111        C119   1.273       .  A
O112        C121   1.274       .  A
O113        C122   1.272       .  A
O114        C121   1.274       .  A
O115        C122   1.275       .  A
O116        C123   1.272       .  A
O117        C123   1.275       .  A
C118       C1742   1.487       .  S
C119       C1732   1.482       .  S
C120       C1712   1.491       .  S
C121       C1722   1.474       .  S
C122       C1752   1.486       .  S
C123       C1795   1.493       .  S
C124       C1682   1.474       .  S
C124        C125   1.406       .  A
C124        C129   1.400       .  A
C125        C126   1.405       .  A
C125        H130   1.083       .  S
C126       C1692   1.471       .  S
C126        C127   1.399       .  A
C127        C128   1.399       .  A
C127        H131   1.085       .  S
C128       C1702   1.480       .  S
C128        C129   1.401       .  A
C129        H132   1.083       .  S
C133       C1662   1.476       .  S
C133        C134   1.402       .  A
C133        C138   1.401       .  A
C134        C135   1.400       .  A
C134        H139   1.084       .  S
C135       C1672   1.470       .  S
C135        C136   1.400       .  A
C136        C137   1.403       .  A
C136        H140   1.084       .  S
C137       C1705   1.488       .  S
C137        C138   1.403       .  A
C138        H141   1.082       .  S
C142       C1632   1.479       .  S
C142        C143   1.402       .  A
C142        C147   1.411       .  A
C143        C144   1.399       .  A
C143        H148   1.084       .  S
C144       C1652   1.471       .  S
C144        C145   1.395       .  A
C145        C146   1.400       .  A
C145        H149   1.085       .  S
C146       C1645   1.478       .  S
C146        C147   1.409       .  A
C147        H150   1.083       .  S
C151       C1625   1.475       .  S
C151        C152   1.400       .  A
C151        C156   1.404       .  A
C152        C153   1.401       .  A
C152        H157   1.084       .  S
C153       C1655   1.483       .  S
C153        C154   1.400       .  A
C154        C155   1.405       .  A
C154        H158   1.083       .  S
C155       C1952   1.482       .  S
C155        C156   1.407       .  A
C156        H159   1.083       .  S
Zn160       O164   1.956       .  S
Zn160       O165   2.027       .  S
Zn160       O169   2.026       .  S
Zn160       O176   2.044       .  S
Zn161       O164   1.959       .  S
Zn161       O166   2.015       .  S
Zn161       O168   2.007       .  S
Zn161       O172   2.040       .  S
Zn162       O164   1.960       .  S
Zn162       O167   2.015       .  S
Zn162       O170   2.028       .  S
Zn162       O173   2.017       .  S
Zn163       O164   1.943       .  S
Zn163       O171   2.000       .  S
Zn163       O174   1.993       .  S
Zn163       O175   1.999       .  S
O165        C177   1.275       .  A
O166        C178   1.275       .  A
O167        C179   1.271       .  A
O168        C177   1.272       .  A
O169        C179   1.277       .  A
O170        C178   1.274       .  A
O171        C180   1.270       .  A
O172        C181   1.276       .  A
O173        C180   1.275       .  A
O174        C181   1.269       .  A
O175        C182   1.271       .  A
O176        C182   1.276       .  A
C177       C1695   1.472       .  S
C178       C1622   1.492       .  S
C179       C1582   1.490       .  S
C180       C1595   1.486       .  S
C181       C1612   1.489       .  S
C182       C1605   1.483       .  S
Zn183       O187   1.956       .  S
Zn183       O188   2.008       .  S
Zn183       O192   2.019       .  S
Zn183       O199   2.006       .  S
Zn184       O187   1.957       .  S
Zn184       O189   2.021       .  S
Zn184       O191   2.031       .  S
Zn184       O195   1.999       .  S
Zn185       O187   1.961       .  S
Zn185       O190   2.017       .  S
Zn185       O193   2.034       .  S
Zn185       O196   2.009       .  S
Zn186       O187   1.967       .  S
Zn186       O194   2.043       .  S
Zn186       O197   2.039       .  S
Zn186       O198   2.038       .  S
O188        C200   1.274       .  A
O189        C201   1.273       .  A
O190        C202   1.273       .  A
O191        C200   1.273       .  A
O192        C202   1.274       .  A
O193        C201   1.276       .  A
O194        C203   1.277       .  A
O195        C204   1.271       .  A
O196        C203   1.271       .  A
O197        C204   1.277       .  A
O198        C205   1.276       .  A
O199        C205   1.272       .  A
C200       C1555   1.494       .  S
C201       C1562   1.497       .  S
C202       C1572   1.485       .  S
C203       C1642   1.486       .  S
C204       C1542   1.476       .  S
C205       C1922   1.487       .  S
C206       C1522   1.466       .  S
C206        C207   1.399       .  A
C206        C211   1.397       .  A
C207        C208   1.403       .  A
C207        H212   1.084       .  S
C208       C1532   1.493       .  S
C208        C209   1.409       .  A
C209        C210   1.407       .  A
C209        H213   1.083       .  S
C210       C1512   1.475       .  S
C210        C211   1.399       .  A
C211        H214   1.084       .  S
C215       C1502   1.484       .  S
C215        C216   1.410       .  A
C215        C220   1.402       .  A
C216        C217   1.413       .  A
C216        H221   1.083       .  S
C217       C1495   1.496       .  S
C217        C218   1.408       .  A
C218        C219   1.406       .  A
C218        H222   1.083       .  S
C219       C1535   1.493       .  S
C219        C220   1.402       .  A
C220        H223   1.084       .  S
Zn224       O228   1.952   1_545  S
Zn224       O229   2.026       .  S
Zn224       O233   2.017   1_545  S
Zn224       O240   2.032       .  S
Zn225       O228   1.959   1_545  S
Zn225       O230   2.028   1_545  S
Zn225       O232   2.011       .  S
Zn225       O236   2.016       .  S
Zn226       O228   1.957       .  S
Zn226       O231   2.017       .  S
Zn226       O234   2.022       .  S
Zn226       O237   2.004       .  S
Zn227       O228   1.963       .  S
Zn227       O235   2.008       .  S
Zn227       O238   2.012   1_565  S
Zn227       O239   2.017   1_565  S
O229        C241   1.276       .  A
O230        C242   1.275       .  A
O231        C243   1.272       .  A
O232        C241   1.272       .  A
O233        C243   1.274       .  A
O234        C242   1.273       .  A
O235        C244   1.272       .  A
O236        C245   1.273       .  A
O237        C244   1.273       .  A
O238        C245   1.274       .  A
O239        C246   1.273       .  A
O240        C246   1.275       .  A
C241       C1482   1.484       .  S
C242       C1452   1.486       .  S
C243       C1472   1.485       .  S
C244       C1525   1.478       .  S
C245       C1465   1.488       .  S
C246       C1865   1.492       .  S
C247       C1422   1.471       .  S
C247        C248   1.402       .  A
C247        C252   1.400       .  A
C248        C249   1.402       .  A
C248        H253   1.083       .  S
C249       C1442   1.486       .  S
C249        C250   1.402       .  A
C250        C251   1.400       .  A
C250        H254   1.083       .  S
C251       C1432   1.472       .  S
C251        C252   1.400       .  A
C252        H255   1.084       .  S
C256       C1575   1.475       .  S
C256        C257   1.399       .  A
C256        C261   1.407       .  A
C257        C258   1.400       .  A
C257        H262   1.083       .  S
C258       C1445   1.487       .  S
C258        C259   1.404       .  A
C259        C260   1.400       .  A
C259        H263   1.083       .  S
C260       C1735   1.475       .  S
C260        C261   1.406       .  A
C261        H264   1.083       .  S
C265       C1835   1.482       .  S
C265        C266   1.404       .  A
C265        C270   1.405       .  A
C266        C267   1.408       .  A
C266        H271   1.084       .  S
C267       C1412   1.487       .  S
C267        C268   1.399       .  A
C268        C269   1.398       .  A
C268        H272   1.083       .  S
C269       C1402   1.471       .  S
C269        C270   1.404       .  A
C270        H273   1.083       .  S
C274       C1485   1.478       .  S
C274        C275   1.408       .  A
C274        C279   1.403       .  A
C275        C276   1.410       .  A
C275        H280   1.082       .  S
C276       C1565   1.494       .  S
C276        C277   1.406       .  A
C277        C278   1.404       .  A
C277        H281   1.083       .  S
C278       C1415   1.496       .  S
C278        C279   1.401       .  A
C279        H282   1.082       .  S
C283       C1372   1.481       .  S
C283        C284   1.403       .  A
C283        C288   1.406       .  A
C284        C285   1.398       .  A
C284        H289   1.084       .  S
C285       C1392   1.478       .  S
C285        C286   1.403       .  A
C286        C287   1.404       .  A
C286        H290   1.084       .  S
C287       C1382   1.477       .  S
C287        C288   1.405       .  A
C288        H291   1.083       .  S
C292       C1362   1.484       .  S
C292        C293   1.409       .  A
C292        C297   1.403       .  A
C293        C294   1.408       .  A
C293        H298   1.083       .  S
C294       C1355   1.474       .  S
C294        C295   1.400       .  A
C295        C296   1.399       .  A
C295        H299   1.084       .  S
C296       C1395   1.480       .  S
C296        C297   1.401       .  A
C297        H300   1.084       .  S
Zn301       O305   1.960       .  S
Zn301       O306   2.037       .  S
Zn301       O310   2.026       .  S
Zn301       O317   1.994       .  S
Zn302       O305   1.953       .  S
Zn302       O307   2.016       .  S
Zn302       O309   2.024       .  S
Zn302       O313   2.018       .  S
Zn303       O305   1.962       .  S
Zn303       O308   2.029       .  S
Zn303       O311   2.020       .  S
Zn303       O314   2.010       .  S
Zn304       O305   1.958       .  S
Zn304       O312   2.016       .  S
Zn304       O315   2.020       .  S
Zn304       O316   2.006       .  S
O306        C318   1.274       .  A
O307        C319   1.275       .  A
O308        C320   1.273       .  A
O309        C318   1.275       .  A
O310        C320   1.276       .  A
O311        C319   1.274       .  A
O312        C321   1.273       .  A
O313        C322   1.273       .  A
O314        C321   1.272       .  A
O315        C322   1.272       .  A
O316        C323   1.274       .  A
O317        C323   1.269       .  A
C318       C1505   1.496       .  S
C319       C1775   1.473       .  S
C320       C1365   1.498       .  S
C321       C1405   1.479       .  S
C322       C1342   1.491       .  S
C323       C1435   1.479       .  S
C324       C1545   1.471       .  S
C324        C325   1.399       .  A
C324        C329   1.404       .  A
C325        C326   1.402       .  A
C325        H330   1.082       .  S
C326       C1332   1.488       .  S
C326        C327   1.403       .  A
C327        C328   1.400       .  A
C327        H331   1.084       .  S
C328       C1325   1.471       .  S
C328        C329   1.404       .  A
C329        H332   1.083       .  S
C333       C1312   1.473       .  S
C333        C334   1.399       .  A
C333        C338   1.405       .  A
C334        C335   1.401       .  A
C334        H339   1.083       .  S
C335       C1335   1.486       .  S
C335        C336   1.403       .  A
C336        C337   1.403       .  A
C336        H340   1.084       .  S
C337       C1942   1.479       .  S
C337        C338   1.406       .  A
C338        H341   1.083       .  S
C342       C1292   1.474       .  S
C342        C343   1.399       .  A
C342        C347   1.404       .  A
C343        C344   1.402       .  A
C343        H348   1.084       .  S
C344       C1302   1.488       .  S
C344        C345   1.403       .  A
C345        C346   1.405       .  A
C345        H349   1.082       .  S
C346       C1285   1.486       .  S
C346        C347   1.408       .  A
C347        H350   1.083       .  S
C351       C1725   1.470       .  S
C351        C352   1.401       .  A
C351        C356   1.402       .  A
C352        C353   1.403       .  A
C352        H357   1.083       .  S
C353       C1305   1.486       .  S
C353        C354   1.402       .  A
C354        C355   1.400       .  A
C354        H358   1.084       .  S
C355       C1275   1.474       .  S
C355        C356   1.403       .  A
C356        H359   1.084       .  S
Zn360       O364   1.967       .  S
Zn360       O365   2.026       .  S
Zn360       O369   2.032       .  S
Zn360       O376   2.017       .  S
Zn361       O364   1.955       .  S
Zn361       O366   2.028       .  S
Zn361       O368   2.017       .  S
Zn361       O372   2.003       .  S
Zn362       O364   1.951       .  S
Zn362       O367   1.984       .  S
Zn362       O370   2.018       .  S
Zn362       O373   1.990       .  S
Zn363       O364   1.962       .  S
Zn363       O371   2.031       .  S
Zn363       O374   2.029       .  S
Zn363       O375   2.029       .  S
O365        C377   1.275       .  A
O366        C378   1.272       .  A
O367        C379   1.269       .  A
O368        C377   1.273       .  A
O369        C379   1.276       .  A
O370        C378   1.272       .  A
O371        C380   1.274       .  A
O372        C381   1.272       .  A
O373        C380   1.269       .  A
O374        C381   1.276       .  A
O375        C382   1.276       .  A
O376        C382   1.272       .  A
C377       C1295   1.475       .  S
C378       C1242   1.497       .  S
C379       C1425   1.486       .  S
C380       C1255   1.467       .  S
C381       C1315   1.477       .  S
C382       C1262   1.486       .  S
Zn383       O387   1.966       .  S
Zn383       O388   2.026   1_566  S
Zn383       O392   2.017   1_556  S
Zn383       O399   2.042       .  S
Zn384       O387   1.956   1_544  S
Zn384       O389   2.007       .  S
Zn384       O391   1.999       .  S
Zn384       O395   1.993   1_554  S
Zn385       O387   1.960   1_554  S
Zn385       O390   2.015       .  S
Zn385       O393   2.046   1_565  S
Zn385       O396   2.021   1_554  S
Zn386       O387   1.961       .  S
Zn386       O394   2.011       .  S
Zn386       O397   2.029   1_565  S
Zn386       O398   2.035       .  S
O388        C400   1.275       .  A
O389        C401   1.269       .  A
O390        C402   1.274       .  A
O391        C400   1.272       .  A
O392        C402   1.273       .  A
O393        C401   1.277       .  A
O394        C403   1.273       .  A
O395        C404   1.272       .  A
O396        C403   1.274       .  A
O397        C404   1.274       .  A
O398        C405   1.274       .  A
O399        C405   1.277       .  A
C400       C1322   1.479       .  S
C401       C1205   1.492       .  S
C402       C1685   1.480       .  S
C403       C1212   1.471       .  S
C404       C1232   1.489       .  S
C405       C1222   1.501       .  S
C406       C1845   1.473       .  S
C406        C407   1.399       .  A
C406        C411   1.406       .  A
C407        C408   1.397       .  A
C407        H412   1.085       .  S
C408       C1192   1.475       .  S
C408        C409   1.397       .  A
C409        C410   1.403       .  A
C409        H413   1.084       .  S
C410       C1745   1.479       .  S
C410        C411   1.408       .  A
C411        H414   1.083       .  S
C415       C1172   1.470       .  S
C415        C416   1.406       .  A
C415        C420   1.399       .  A
C416        C417   1.408       .  A
C416        H421   1.083       .  S
C417       C1182   1.485       .  S
C417        C418   1.403       .  A
C418        C419   1.398       .  A
C418        H422   1.085       .  S
C419       C1195   1.470       .  S
C419        C420   1.396       .  A
C420        H423   1.084       .  S
C424       C1815   1.481       .  S
C424        C425   1.400       .  A
C424        C429   1.410       .  A
C425        C426   1.396       .  A
C425        H430   1.084       .  S
C426       C1165   1.477       .  S
C426        C427   1.399       .  A
C427        C428   1.403       .  A
C427        H431   1.084       .  S
C428       C1202   1.485       .  S
C428        C429   1.411       .  A
C429        H432   1.083       .  S
C433       C1475   1.481       .  S
C433        C434   1.400       .  A
C433        C438   1.410       .  A
C434        C435   1.396       .  A
C434        H439   1.084       .  S
C435       C1162   1.473       .  S
C435        C436   1.400       .  A
C436        C437   1.405       .  A
C436        H440   1.084       .  S
C437       C1152   1.490       .  S
C437        C438   1.411       .  A
C438        H441   1.083       .  S
C442       C1592   1.476       .  S
C442        C443   1.402       .  A
C442        C447   1.406       .  A
C443        C444   1.400       .  A
C443        H448   1.082       .  S
C444       C1145   1.487       .  S
C444        C445   1.405       .  A
C445        C446   1.401       .  A
C445        H449   1.084       .  S
C446       C1715   1.479       .  S
C446        C447   1.404       .  A
C447        H450   1.084       .  S
C451       C1122   1.475       .  S
C451        C452   1.401       .  A
C451        C456   1.404       .  A
C452        C453   1.403       .  A
C452        H457   1.084       .  S
C453       C1142   1.484       .  S
C453        C454   1.402       .  A
C454        C455   1.399       .  A
C454        H458   1.083       .  S
C455       C1132   1.471       .  S
C455        C456   1.403       .  A
C456        H459   1.084       .  S
C460       C1102   1.477       .  S
C460        C461   1.406       .  A
C460        C465   1.399       .  A
C461        C462   1.409       .  A
C461        H466   1.084       .  S
C462       C1975   1.489       .  S
C462        C463   1.406       .  A
C463        C464   1.404       .  A
C463        H467   1.081       .  S
C464       C1112   1.491       .  S
C464        C465   1.403       .  A
C465        H468   1.084       .  S
C469       C1092   1.477       .  S
C469        C470   1.404       .  A
C469        C474   1.403       .  A
C470        C471   1.403       .  A
C470        H475   1.084       .  S
C471       C1215   1.472       .  S
C471        C472   1.400       .  A
C472        C473   1.402       .  A
C472        H476   1.083       .  S
C473       C1115   1.490       .  S
C473        C474   1.406       .  A
C474        H477   1.083       .  S
Zn478       O482   1.960       .  S
Zn478       O483   2.017       .  S
Zn478       O487   2.030       .  S
Zn478       O494   2.026       .  S
Zn479       O482   1.971       .  S
Zn479       O484   2.016       .  S
Zn479       O486   2.032       .  S
Zn479       O490   2.046       .  S
Zn480       O482   1.969       .  S
Zn480       O485   2.033       .  S
Zn480       O488   2.022       .  S
Zn480       O491   2.034       .  S
Zn481       O482   1.947       .  S
Zn481       O489   2.007       .  S
Zn481       O492   2.003       .  S
Zn481       O493   1.989       .  S
O483        C495   1.274       .  A
O484        C496   1.275       .  A
O485        C497   1.274       .  A
O486        C495   1.275       .  A
O487        C497   1.276       .  A
O488        C496   1.275       .  A
O489        C498   1.271       .  A
O490        C499   1.276       .  A
O491        C498   1.275       .  A
O492        C499   1.269       .  A
O493        C500   1.269       .  A
O494        C500   1.275       .  A
C495       C1105   1.486       .  S
C496       C1135   1.478       .  S
C497       C1155   1.497       .  S
C498       C1765   1.489       .  S
C499       C1185   1.496       .  S
C500       C1675   1.480       .  S
C501       C1602   1.477       .  S
C501        C502   1.409       .  A
C501        C506   1.401       .  A
C502        C503   1.410       .  A
C502        H507   1.083       .  S
C503       C1345   1.485       .  S
C503        C504   1.403       .  A
C504        C505   1.396       .  A
C504        H508   1.084       .  S
C505       C1082   1.472       .  S
C505        C506   1.398       .  A
C506        H509   1.085       .  S
C510       C1552   1.478       .  S
C510        C511   1.407       .  A
C510        C515   1.404       .  A
C511        C512   1.408       .  A
C511        H516   1.083       .  S
C512       C1072   1.482       .  S
C512        C513   1.401       .  A
C513        C514   1.398       .  A
C513        H517   1.084       .  S
C514       C1085   1.475       .  S
C514        C515   1.400       .  A
C515        H518   1.084       .  S
Zn519       O523   1.958       .  S
Zn519       O524   2.016       .  S
Zn519       O528   2.029       .  S
Zn519       O535   2.019   1_554  S
Zn520       O523   1.961       .  S
Zn520       O525   2.017       .  S
Zn520       O527   2.035       .  S
Zn520       O531   2.013   1_554  S
Zn521       O523   1.960       .  S
Zn521       O526   2.015       .  S
Zn521       O529   2.006       .  S
Zn521       O532   2.031   1_554  S
Zn522       O523   1.954   1_556  S
Zn522       O530   2.013       .  S
Zn522       O533   1.997       .  S
Zn522       O534   1.999       .  S
O524        C536   1.274       .  A
O525        C537   1.273       .  A
O526        C538   1.273       .  A
O527        C536   1.274       .  A
O528        C538   1.276       .  A
O529        C537   1.271       .  A
O530        C539   1.273       .  A
O531        C540   1.273       .  A
O532        C539   1.273       .  A
O533        C540   1.270       .  A
O534        C541   1.270       .  A
O535        C541   1.274       .  A
C536       C1075   1.491       .  S
C537       C1665   1.463       .  S
C538       C1052   1.482       .  S
C539       C1385   1.492       .  S
C540       C1042   1.468       .  S
C541       C1062   1.481       .  S
Zn542       O546   1.970       .  S
Zn542       O547   2.007       .  S
Zn542       O551   2.026   1_545  S
Zn542       O558   2.031   1_655  S
Zn543       O546   1.966       .  S
Zn543       O548   2.047       .  S
Zn543       O550   2.029       .  S
Zn543       O554   2.052   1_655  S
Zn544       O546   1.959   1_565  S
Zn544       O549   2.004       .  S
Zn544       O552   2.010       .  S
Zn544       O555   2.021   1_655  S
Zn545       O546   1.959   1_455  S
Zn545       O553   2.025   1_545  S
Zn545       O556   2.019       .  S
Zn545       O557   2.022       .  S
O547        C559   1.271       .  A
O548        C560   1.276   1_545  A
O549        C561   1.270       .  A
O550        C559   1.276       .  A
O551        C561   1.275       .  A
O552        C560   1.273       .  A
O553        C562   1.275       .  A
O554        C563   1.278       .  A
O555        C562   1.274       .  A
O556        C563   1.273       .  A
O557        C564   1.273       .  A
O558        C564   1.276       .  A
C559       C1875   1.481       .  S
C560       C1032   1.491       .  S
C561       C1125   1.490       .  S
C562       C1022   1.481       .  S
C563       C1015   1.486       .  S
C564       C1635   1.493       .  S
C565       C1615   1.475       .  S
C565        C566   1.400       .  A
C565        C570   1.406       .  A
C566        C567   1.398       .  A
C566        H571   1.085       .  S
C567       C1002   1.474       .  S
C567        C568   1.402       .  A
C568        C569   1.403       .  A
C568        H572   1.084       .  S
C569       C1455   1.476       .  S
C569        C570   1.406       .  A
C570        H573   1.084       .  S
C574        C995   1.477       .  S
C574        C575   1.405       .  A
C574        C579   1.399       .  A
C575        C576   1.405       .  A
C575        H580   1.084       .  S
C576       C1025   1.475       .  S
C576        C577   1.404       .  A
C577        C578   1.404       .  A
C577        H581   1.083       .  S
C578       C1005   1.480       .  S
C578        C579   1.398       .  A
C579        H582   1.085       .  S
C583       C1265   1.475       .  S
C583        C584   1.401       .  A
C583        C588   1.402       .  A
C584        C585   1.405       .  A
C584        H589   1.084       .  S
C585        C982   1.491       .  S
C585        C586   1.404       .  A
C586        C587   1.403       .  A
C586        H590   1.083       .  S
C587       C1065   1.471       .  S
C587        C588   1.403       .  A
C588        H591   1.083       .  S
C592        C972   1.477       .  S
C592        C593   1.403       .  A
C592        C597   1.403       .  A
C593        C594   1.404       .  A
C593        H598   1.084       .  S
C594        C985   1.486       .  S
C594        C595   1.402       .  A
C595        C596   1.402       .  A
C595        H599   1.083       .  S
C596       C1235   1.478       .  S
C596        C597   1.404       .  A
C597        H600   1.084       .  S
C601       C1012   1.482       .  S
C601        C602   1.409       .  A
C601        C606   1.402       .  A
C602        C603   1.411       .  A
C602        H607   1.083       .  S
C603       C1245   1.488       .  S
C603        C604   1.404       .  A
C604        C605   1.403       .  A
C604        H608   1.084       .  S
C605        C962   1.493       .  S
C605        C606   1.403       .  A
C606        H609   1.082       .  S
C610       C1755   1.476       .  S
C610        C611   1.404       .  A
C610        C615   1.402       .  A
C611        C612   1.404       .  A
C611        H616   1.083       .  S
C612        C955   1.476       .  S
C612        C613   1.401       .  A
C613        C614   1.406       .  A
C613        H617   1.084       .  S
C614        C965   1.492       .  S
C614        C615   1.404       .  A
C615        H618   1.083       .  S
C619       C1825   1.491       .  S
C619        C620   1.405       .  A
C619        C624   1.410       .  A
C620        C621   1.405       .  A
C620        H625   1.082       .  S
C621        C942   1.490       .  S
C621        C622   1.402       .  A
C622        C623   1.400       .  A
C622        H626   1.084       .  S
C623       C1055   1.476       .  S
C623        C624   1.408       .  A
C624        H627   1.083       .  S
C628        C932   1.477       .  S
C628        C629   1.404       .  A
C628        C633   1.406       .  A
C629        C630   1.403       .  A
C629        H634   1.083       .  S
C630        C922   1.476       .  S
C630        C631   1.399       .  A
C631        C632   1.404       .  A
C631        H635   1.084       .  S
C632        C945   1.490       .  S
C632        C633   1.406       .  A
C633        H636   1.083       .  S
Zn637       O641   1.963       .  S
Zn637       O642   2.026       .  S
Zn637       O646   2.002       .  S
Zn637       O653   2.019       .  S
Zn638       O641   1.956       .  S
Zn638       O643   2.002       .  S
Zn638       O645   2.023       .  S
Zn638       O649   2.019       .  S
Zn639       O641   1.967       .  S
Zn639       O644   2.025       .  S
Zn639       O647   2.043       .  S
Zn639       O650   2.037       .  S
Zn640       O641   1.961       .  S
Zn640       O648   2.012       .  S
Zn640       O651   2.017       .  S
Zn640       O652   2.021       .  S
O642        C654   1.275       .  A
O643        C655   1.271       .  A
O644        C656   1.276       .  A
O645        C654   1.272       .  A
O646        C656   1.271       .  A
O647        C655   1.277       .  A
O648        C657   1.272       .  A
O649        C658   1.274       .  A
O650        C657   1.276       .  A
O651        C658   1.274       .  A
O652        C659   1.275       .  A
O653        C659   1.272       .  A
C654        C935   1.493       .  S
C655        C952   1.482       .  S
C656        C912   1.481       .  S
C657       C1852   1.479       .  S
C658       C1352   1.482       .  S
C659        C975   1.493       .  S
C660       C1992   1.475       .  S
C660        C661   1.402       .  A
C660        C665   1.403       .  A
C661        C662   1.403       .  A
C661        H666   1.083       .  S
C662        C902   1.486       .  S
C662        C663   1.406       .  A
C663        C664   1.400       .  A
C663        H667   1.082       .  S
C664        C892   1.476       .  S
C664        C665   1.402       .  A
C665        H668   1.087       .  S
C669        C882   1.477       .  S
C669        C670   1.403       .  A
C669        C674   1.404       .  A
C670        C671   1.402       .  A
C670        H675   1.087       .  S
C671        C872   1.467       .  S
C671        C672   1.398       .  A
C672        C673   1.399       .  A
C672        H676   1.082       .  S
C673        C905   1.485       .  S
C673        C674   1.403       .  A
C674        H677   1.083       .  S
C678       C1985   1.480       .  S
C678        C679   1.407       .  A
C678        C683   1.404       .  A
C679        C680   1.408       .  A
C679        H684   1.082       .  S
C680        C862   1.495       .  S
C680        C681   1.404       .  A
C681        C682   1.398       .  A
C681        H685   1.083       .  S
C682        C915   1.472       .  S
C682        C683   1.401       .  A
C683        H686   1.084       .  S
C687        C852   1.479       .  S
C687        C688   1.402       .  A
C687        C692   1.406       .  A
C688        C689   1.404       .  A
C688        H693   1.084       .  S
C689        C865   1.490       .  S
C689        C690   1.404       .  A
C690        C691   1.402       .  A
C690        H694   1.083       .  S
C691       C1035   1.484       .  S
C691        C692   1.409       .  A
C692        H695   1.083       .  S
Zn696       O700   1.961       .  S
Zn696       O701   2.019       .  S
Zn696       O705   2.013       .  S
Zn696       O712   2.008       .  S
Zn697       O700   1.964       .  S
Zn697       O702   2.017       .  S
Zn697       O704   2.029       .  S
Zn697       O708   2.023       .  S
Zn698       O700   1.970       .  S
Zn698       O703   2.026       .  S
Zn698       O706   2.041       .  S
Zn698       O709   2.041       .  S
Zn699       O700   1.944       .  S
Zn699       O707   2.004       .  S
Zn699       O710   1.997       .  S
Zn699       O711   2.009       .  S
O701        C713   1.273       .  A
O702        C714   1.274       .  A
O703        C715   1.275       .  A
O704        C713   1.275       .  A
O705        C715   1.275       .  A
O706        C714   1.277       .  A
O707        C716   1.270       .  A
O708        C717   1.272       .  A
O709        C716   1.275       .  A
O710        C717   1.272       .  A
O711        C718   1.271       .  A
O712        C718   1.272       .  A
C713       C1095   1.477       .  S
C714        C855   1.482       .  S
C715        C885   1.491       .  S
C716       C1785   1.491       .  S
C717       C1515   1.480       .  S
C718       C1375   1.486       .  S
Zn719       O723   1.957   1_455  S
Zn719       O724   2.011       .  S
Zn719       O728   2.025       .  S
Zn719       O735   2.036   1_554  S
Zn720       O723   1.958       .  S
Zn720       O725   2.017       .  S
Zn720       O727   2.012       .  S
Zn720       O731   2.024       .  S
Zn721       O723   1.959       .  S
Zn721       O726   2.024   1_655  S
Zn721       O729   2.010       .  S
Zn721       O732   2.008   1_554  S
Zn722       O723   1.953   1_556  S
Zn722       O730   2.003       .  S
Zn722       O733   2.008       .  S
Zn722       O734   2.008   1_655  S
O724        C736   1.272       .  A
O725        C737   1.273       .  A
O726        C738   1.272       .  A
O727        C736   1.275   1_655  A
O728        C738   1.276       .  A
O729        C737   1.272       .  A
O730        C739   1.273       .  A
O731        C740   1.273   1_554  A
O732        C739   1.273       .  A
O733        C740   1.272       .  A
O734        C741   1.271       .  A
O735        C741   1.276       .  A
C736       C1915   1.485       .  S
C737       C1175   1.472       .  S
C738        C842   1.497       .  S
C739        C875   1.474       .  S
C740        C925   1.485       .  S
C741       C1282   1.496       .  S
C742       C1252   1.473       .  S
C742        C743   1.404       .  A
C742        C747   1.402       .  A
C743        C744   1.404       .  A
C743        H748   1.083       .  S
C744       C1462   1.472       .  S
C744        C745   1.400       .  A
C745        C746   1.401       .  A
C745        H749   1.084       .  S
C746        C835   1.482       .  S
C746        C747   1.399       .  A
C747        H750   1.084       .  S
C751       C1225   1.487       .  S
C751        C752   1.408       .  A
C751        C756   1.402       .  A
C752        C753   1.407       .  A
C752        H757   1.083       .  S
C753        C825   1.479       .  S
C753        C754   1.402       .  A
C754        C755   1.404       .  A
C754        H758   1.082       .  S
C755        C832   1.494       .  S
C755        C756   1.407       .  A
C756        H759   1.084       .  S
C760       C1585   1.482       .  S
C760        C761   1.409       .  A
C760        C765   1.401       .  A
C761        C762   1.410       .  A
C761        H766   1.084       .  S
C762        C845   1.483       .  S
C762        C763   1.403       .  A
C763        C764   1.400       .  A
C763        H767   1.083       .  S
C764        C812   1.482       .  S
C764        C765   1.398       .  A
C765        H768   1.084       .  S
C769       C1045   1.467       .  S
C769        C770   1.399       .  A
C769        C774   1.399       .  A
C770        C771   1.401       .  A
C770        H775   1.084       .  S
C771        C802   1.474       .  S
C771        C772   1.401       .  A
C772        C773   1.408       .  A
C772        H776   1.083       .  S
C773        C815   1.492       .  S
C773        C774   1.402       .  A
C774        H777   1.081       .  S
Zn778       O782   1.948       .  S
Zn778       O783   2.018       .  S
Zn778       O787   2.017       .  S
Zn778       O794   2.033       .  S
Zn779       O782   1.960       .  S
Zn779       O784   2.023       .  S
Zn779       O786   2.028       .  S
Zn779       O790   2.017       .  S
Zn780       O782   1.964       .  S
Zn780       O785   2.004       .  S
Zn780       O788   2.020       .  S
Zn780       O791   2.013       .  S
Zn781       O782   1.963       .  S
Zn781       O789   2.007       .  S
Zn781       O792   2.023       .  S
Zn781       O793   2.043       .  S
O783        C795   1.275       .  A
O784        C796   1.273       .  A
O785        C797   1.270       .  A
O786        C795   1.274       .  A
O787        C797   1.275       .  A
O788        C796   1.273       .  A
O789        C798   1.272       .  A
O790        C799   1.275       .  A
O791        C798   1.274       .  A
O792        C799   1.274       .  A
O793        C800   1.275       .  A
O794        C800   1.274       .  A
C795        C822   1.487       .  S
C796        C895   1.488       .  S
C797        C992   1.485       .  S
C798       C1272   1.484       .  S
C799        C805   1.486       .  S
C800       C1492   1.502       .  S
C801        C802   1.401       .  A
C801        C806   1.399       .  A
C801        H808   1.084       .  S
C802        C803   1.404       .  A
C803        C804   1.399       .  A
C803       Br810   1.919       .  S
C804        C805   1.409       .  A
C804        H809   1.083       .  S
C805        C806   1.416       .  A
C806       Br807   1.922       .  S
C811        C812   1.404       .  A
C811        C816   1.398       .  A
C811        H818   1.084       .  S
C812        C813   1.408   1_554  A
C813        C814   1.394       .  A
C813       Br820   1.922       .  S
C814        C815   1.408       .  A
C814        H819   1.082       .  S
C815        C816   1.418   1_556  A
C816       Br817   1.925       .  S
C821        C822   1.405       .  A
C821        C826   1.396       .  A
C821        H828   1.083       .  S
C822        C823   1.417       .  A
C823        C824   1.405       .  A
C823       Br830   1.920       .  S
C824        C825   1.402       .  A
C824        H829   1.083       .  S
C825        C826   1.407       .  A
C826       Br827   1.918       .  S
C831        C832   1.409   1_545  A
C831        C836   1.397       .  A
C831        H838   1.083       .  S
C832        C833   1.418       .  A
C833        C834   1.396       .  A
C833       Br840   1.921       .  S
C834        C835   1.403   1_565  A
C834        H839   1.084       .  S
C835        C836   1.409       .  A
C836       Br837   1.922       .  S
C841        C842   1.409       .  A
C841        C846   1.397       .  A
C841        H848   1.083       .  S
C842        C843   1.422       .  A
C843        C844   1.404       .  A
C843       Br850   1.922       .  S
C844        C845   1.402       .  A
C844        H849   1.084       .  S
C845        C846   1.408       .  A
C846       Br847   1.921       .  S
C851        C852   1.404       .  A
C851        C856   1.402       .  A
C851        H858   1.083       .  S
C852        C853   1.405       .  A
C853        C854   1.401       .  A
C853       Br860   1.918       .  S
C854        C855   1.407       .  A
C854        H859   1.083       .  S
C855        C856   1.411       .  A
C856       Br857   1.919       .  S
C861        C862   1.410       .  A
C861        C866   1.396       .  A
C861        H868   1.083       .  S
C862        C863   1.415   1_545  A
C863        C864   1.399       .  A
C863       Br870   1.922       .  S
C864        C865   1.407       .  A
C864        H869   1.083       .  S
C865        C866   1.412   1_565  A
C866       Br867   1.924       .  S
C871        C872   1.398       .  A
C871        C876   1.396       .  A
C871        H878   1.085       .  S
C872        C873   1.406       .  A
C873        C874   1.396       .  A
C873       Br880   1.919       .  S
C874        C875   1.405       .  A
C874        H879   1.085       .  S
C875        C876   1.414       .  A
C876       Br877   1.921       .  S
C881        C882   1.400       .  A
C881        C886   1.397       .  A
C881        H888   1.085       .  S
C882        C883   1.406       .  A
C883        C884   1.399       .  A
C883       Br890   1.920       .  S
C884        C885   1.411       .  A
C884        H889   1.084       .  S
C885        C886   1.418       .  A
C886       Br887   1.922       .  S
C891        C892   1.400       .  A
C891        C896   1.399       .  A
C891        H898   1.082       .  S
C892        C893   1.407       .  A
C893        C894   1.401       .  A
C893       Br900   1.920       .  S
C894        C895   1.410       .  A
C894        H899   1.082       .  S
C895        C896   1.416       .  A
C896       Br897   1.921       .  S
C901        C902   1.404       .  A
C901        C906   1.394   1_455  A
C901        H908   1.086       .  S
C902        C903   1.414   1_455  A
C903        C904   1.398       .  A
C903       Br910   1.922       .  S
C904        C905   1.405       .  A
C904        H909   1.086       .  S
C905        C906   1.414       .  A
C906       Br907   1.924   1_655  S
C911        C912   1.404       .  A
C911        C916   1.395       .  A
C911        H918   1.083       .  S
C912        C913   1.418       .  A
C913        C914   1.401       .  A
C913       Br920   1.922       .  S
C914        C915   1.399       .  A
C914        H919   1.084       .  S
C915        C916   1.407       .  A
C916       Br917   1.920       .  S
C921        C922   1.403       .  A
C921        C926   1.399       .  A
C921        H928   1.084       .  S
C922        C923   1.404       .  A
C923        C924   1.399       .  A
C923       Br930   1.918       .  S
C924        C925   1.409       .  A
C924        H929   1.083       .  S
C925        C926   1.414       .  A
C926       Br927   1.922   1_556  S
C931        C932   1.400       .  A
C931        C936   1.402       .  A
C931        H938   1.084       .  S
C932        C933   1.404       .  A
C933        C934   1.400       .  A
C933       Br940   1.919       .  S
C934        C935   1.410       .  A
C934        H939   1.083       .  S
C935        C936   1.420       .  A
C936       Br937   1.922       .  S
C941        C942   1.409   1_556  A
C941        C946   1.402       .  A
C941        H948   1.082       .  S
C942        C943   1.412       .  A
C943        C944   1.394       .  A
C943       Br950   1.923       .  S
C944        C945   1.406   1_554  A
C944        H949   1.082       .  S
C945        C946   1.413       .  A
C946       Br947   1.921       .  S
C951        C952   1.405       .  A
C951        C956   1.401       .  A
C951        H958   1.083       .  S
C952        C953   1.415       .  A
C953        C954   1.399       .  A
C953       Br960   1.921       .  S
C954        C955   1.399       .  A
C954        H959   1.084       .  S
C955        C956   1.409       .  A
C956       Br957   1.919       .  S
C961        C962   1.408       .  A
C961        C966   1.399       .  A
C961        H968   1.083       .  S
C962        C963   1.415   1_455  A
C963        C964   1.397       .  A
C963       Br970   1.922       .  S
C964        C965   1.406       .  A
C964        H969   1.083       .  S
C965        C966   1.414   1_655  A
C966       Br967   1.923       .  S
C971        C972   1.399       .  A
C971        C976   1.400       .  A
C971        H978   1.084       .  S
C972        C973   1.405       .  A
C973        C974   1.398       .  A
C973       Br980   1.920       .  S
C974        C975   1.411       .  A
C974        H979   1.083       .  S
C975        C976   1.421       .  A
C976       Br977   1.922       .  S
C981        C982   1.407       .  A
C981        C986   1.396       .  A
C981        H988   1.083       .  S
C982        C983   1.416       .  A
C983        C984   1.399       .  A
C983       Br990   1.922       .  S
C984        C985   1.405       .  A
C984        H989   1.084       .  S
C985        C986   1.412       .  A
C986       Br987   1.923       .  S
C991        C992   1.406       .  A
C991        C996   1.395       .  A
C991        H998   1.083       .  S
C992        C993   1.419       .  A
C993        C994   1.400       .  A
C993      Br1000   1.922       .  S
C994        C995   1.400       .  A
C994        H999   1.083       .  S
C995        C996   1.408       .  A
C996       Br997   1.922       .  S
C1001      C1002   1.401       .  A
C1001      C1006   1.396       .  A
C1001      H1008   1.084       .  S
C1002      C1003   1.408       .  A
C1003      C1004   1.398       .  A
C1003     Br1010   1.920       .  S
C1004      C1005   1.407       .  A
C1004      H1009   1.083       .  S
C1005      C1006   1.411       .  A
C1006     Br1007   1.920       .  S
C1011      C1012   1.402       .  A
C1011      C1016   1.405       .  A
C1011      H1018   1.084       .  S
C1012      C1013   1.409       .  A
C1013      C1014   1.401       .  A
C1013     Br1020   1.918       .  S
C1014      C1015   1.404       .  A
C1014      H1019   1.084       .  S
C1015      C1016   1.416       .  A
C1016     Br1017   1.920       .  S
C1021      C1022   1.407       .  A
C1021      C1026   1.401       .  A
C1021      H1028   1.083       .  S
C1022      C1023   1.413       .  A
C1023      C1024   1.400       .  A
C1023     Br1030   1.920       .  S
C1024      C1025   1.401       .  A
C1024      H1029   1.084       .  S
C1025      C1026   1.406       .  A
C1026     Br1027   1.918       .  S
C1031      C1032   1.409       .  A
C1031      C1036   1.400       .  A
C1031      H1038   1.083       .  S
C1032      C1033   1.415       .  A
C1033      C1034   1.403       .  A
C1033     Br1040   1.921   1_565  S
C1034      C1035   1.405       .  A
C1034      H1039   1.083       .  S
C1035      C1036   1.407       .  A
C1036     Br1037   1.919       .  S
C1041      C1042   1.402       .  A
C1041      C1046   1.396       .  A
C1041      H1048   1.084       .  S
C1042      C1043   1.411       .  A
C1043      C1044   1.398       .  A
C1043     Br1050   1.920       .  S
C1044      C1045   1.400       .  A
C1044      H1049   1.084       .  S
C1045      C1046   1.407       .  A
C1046     Br1047   1.919       .  S
C1051      C1052   1.405       .  A
C1051      C1056   1.399       .  A
C1051      H1058   1.083       .  S
C1052      C1053   1.415       .  A
C1053      C1054   1.403       .  A
C1053     Br1060   1.922       .  S
C1054      C1055   1.402       .  A
C1054      H1059   1.083       .  S
C1055      C1056   1.406       .  A
C1056     Br1057   1.919       .  S
C1061      C1062   1.407       .  A
C1061      C1066   1.399       .  A
C1061      H1068   1.084       .  S
C1062      C1063   1.416       .  A
C1063      C1064   1.398       .  A
C1063     Br1070   1.923       .  S
C1064      C1065   1.399       .  A
C1064      H1069   1.084       .  S
C1065      C1066   1.404       .  A
C1066     Br1067   1.917       .  S
C1071      C1072   1.405       .  A
C1071      C1076   1.401       .  A
C1071      H1078   1.083       .  S
C1072      C1073   1.407       .  A
C1073      C1074   1.399       .  A
C1073     Br1080   1.920       .  S
C1074      C1075   1.409       .  A
C1074      H1079   1.083       .  S
C1075      C1076   1.417       .  A
C1076     Br1077   1.922       .  S
C1081      C1082   1.401       .  A
C1081      C1086   1.396       .  A
C1081      H1088   1.084       .  S
C1082      C1083   1.409       .  A
C1083      C1084   1.398       .  A
C1083     Br1090   1.920       .  S
C1084      C1085   1.403       .  A
C1084      H1089   1.084       .  S
C1085      C1086   1.411       .  A
C1086     Br1087   1.921       .  S
C1091      C1092   1.403       .  A
C1091      C1096   1.399       .  A
C1091      H1098   1.084       .  S
C1092      C1093   1.406       .  A
C1093      C1094   1.402       .  A
C1093     Br1100   1.918       .  S
C1094      C1095   1.406       .  A
C1094      H1099   1.084       .  S
C1095      C1096   1.409       .  A
C1096     Br1097   1.919       .  S
C1101      C1102   1.401       .  A
C1101      C1106   1.398       .  A
C1101      H1108   1.084       .  S
C1102      C1103   1.406       .  A
C1103      C1104   1.403       .  A
C1103     Br1110   1.918       .  S
C1104      C1105   1.408       .  A
C1104      H1109   1.083       .  S
C1105      C1106   1.415       .  A
C1106     Br1107   1.922       .  S
C1111      C1112   1.407       .  A
C1111      C1116   1.397       .  A
C1111      H1118   1.083       .  S
C1112      C1113   1.414   1_554  A
C1113      C1114   1.398       .  A
C1113     Br1120   1.922       .  S
C1114      C1115   1.406       .  A
C1114      H1119   1.083       .  S
C1115      C1116   1.414   1_556  A
C1116     Br1117   1.924       .  S
C1121      C1122   1.400       .  A
C1121      C1126   1.399       .  A
C1121      H1128   1.084       .  S
C1122      C1123   1.405       .  A
C1123      C1124   1.398       .  A
C1123     Br1130   1.919       .  S
C1124      C1125   1.408       .  A
C1124      H1129   1.083       .  S
C1125      C1126   1.420       .  A
C1126     Br1127   1.924       .  S
C1131      C1132   1.401       .  A
C1131      C1136   1.399       .  A
C1131      H1138   1.084       .  S
C1132      C1133   1.404       .  A
C1133      C1134   1.398       .  A
C1133     Br1140   1.918       .  S
C1134      C1135   1.406       .  A
C1134      H1139   1.083       .  S
C1135      C1136   1.412       .  A
C1136     Br1137   1.921       .  S
C1141      C1142   1.406   1_455  A
C1141      C1146   1.399       .  A
C1141      H1148   1.083       .  S
C1142      C1143   1.412       .  A
C1143      C1144   1.393       .  A
C1143     Br1150   1.923       .  S
C1144      C1145   1.405   1_655  A
C1144      H1149   1.083       .  S
C1145      C1146   1.415       .  A
C1146     Br1147   1.923       .  S
C1151      C1152   1.403       .  A
C1151      C1156   1.404       .  A
C1151      H1158   1.084       .  S
C1152      C1153   1.412       .  A
C1153      C1154   1.399       .  A
C1153     Br1160   1.922       .  S
C1154      C1155   1.408       .  A
C1154      H1159   1.083       .  S
C1155      C1156   1.420       .  A
C1156     Br1157   1.921       .  S
C1161      C1162   1.403       .  A
C1161      C1166   1.397   1_565  A
C1161      H1168   1.084       .  S
C1162      C1163   1.407       .  A
C1163      C1164   1.396   1_565  A
C1163     Br1170   1.919       .  S
C1164      C1165   1.404       .  A
C1164      H1169   1.084       .  S
C1165      C1166   1.410       .  A
C1166     Br1167   1.920       .  S
C1171      C1172   1.402       .  A
C1171      C1176   1.400       .  A
C1171      H1178   1.083       .  S
C1172      C1173   1.406       .  A
C1173      C1174   1.398       .  A
C1173     Br1180   1.919       .  S
C1174      C1175   1.403       .  A
C1174      H1179   1.083       .  S
C1175      C1176   1.410       .  A
C1176     Br1177   1.920       .  S
C1181      C1182   1.401       .  A
C1181      C1186   1.396       .  A
C1181      H1188   1.084       .  S
C1182      C1183   1.408       .  A
C1183      C1184   1.404       .  A
C1183     Br1190   1.919       .  S
C1184      C1185   1.411       .  A
C1184      H1189   1.083       .  S
C1185      C1186   1.421       .  A
C1186     Br1187   1.922       .  S
C1191      C1192   1.403       .  A
C1191      C1196   1.393       .  A
C1191      H1198   1.084       .  S
C1192      C1193   1.412       .  A
C1193      C1194   1.398       .  A
C1193     Br1200   1.921       .  S
C1194      C1195   1.402       .  A
C1194      H1199   1.084       .  S
C1195      C1196   1.407       .  A
C1196     Br1197   1.920       .  S
C1201      C1202   1.401       .  A
C1201      C1206   1.404       .  A
C1201      H1208   1.084       .  S
C1202      C1203   1.410       .  A
C1203      C1204   1.400       .  A
C1203     Br1210   1.920       .  S
C1204      C1205   1.406       .  A
C1204      H1209   1.083       .  S
C1205      C1206   1.420       .  A
C1206     Br1207   1.922       .  S
C1211      C1212   1.403       .  A
C1211      C1216   1.400       .  A
C1211      H1218   1.084       .  S
C1212      C1213   1.409       .  A
C1213      C1214   1.398       .  A
C1213     Br1220   1.919       .  S
C1214      C1215   1.401       .  A
C1214      H1219   1.084       .  S
C1215      C1216   1.408       .  A
C1216     Br1217   1.918       .  S
C1221      C1222   1.411       .  A
C1221      C1226   1.403       .  A
C1221      H1228   1.083       .  S
C1222      C1223   1.421       .  A
C1223      C1224   1.403       .  A
C1223     Br1230   1.923       .  S
C1224      C1225   1.402       .  A
C1224      H1229   1.084       .  S
C1225      C1226   1.408       .  A
C1226     Br1227   1.920       .  S
C1231      C1232   1.410       .  A
C1231      C1236   1.395       .  A
C1231      H1238   1.083       .  S
C1232      C1233   1.417       .  A
C1233      C1234   1.400       .  A
C1233     Br1240   1.922       .  S
C1234      C1235   1.402       .  A
C1234      H1239   1.084       .  S
C1235      C1236   1.406       .  A
C1236     Br1237   1.921       .  S
C1241      C1242   1.412       .  A
C1241      C1246   1.404       .  A
C1241      H1248   1.083       .  S
C1242      C1243   1.419       .  A
C1243      C1244   1.399       .  A
C1243     Br1250   1.923       .  S
C1244      C1245   1.403       .  A
C1244      H1249   1.083       .  S
C1245      C1246   1.408       .  A
C1246     Br1247   1.919       .  S
C1251      C1252   1.401       .  A
C1251      C1256   1.395       .  A
C1251      H1258   1.084       .  S
C1252      C1253   1.409       .  A
C1253      C1254   1.401       .  A
C1253     Br1260   1.918       .  S
C1254      C1255   1.402       .  A
C1254      H1259   1.083       .  S
C1255      C1256   1.407       .  A
C1256     Br1257   1.920       .  S
C1261      C1262   1.405       .  A
C1261      C1266   1.396       .  A
C1261      H1268   1.083       .  S
C1262      C1263   1.418       .  A
C1263      C1264   1.403       .  A
C1263     Br1270   1.921       .  S
C1264      C1265   1.400       .  A
C1264      H1269   1.083       .  S
C1265      C1266   1.407       .  A
C1266     Br1267   1.920       .  S
C1271      C1272   1.408       .  A
C1271      C1276   1.398       .  A
C1271      H1278   1.083       .  S
C1272      C1273   1.417       .  A
C1273      C1274   1.396       .  A
C1273     Br1280   1.923       .  S
C1274      C1275   1.400       .  A
C1274      H1279   1.084       .  S
C1275      C1276   1.407       .  A
C1276     Br1277   1.919       .  S
C1281      C1282   1.410       .  A
C1281      C1286   1.401       .  A
C1281      H1288   1.083       .  S
C1282      C1283   1.421       .  A
C1283      C1284   1.399       .  A
C1283     Br1290   1.925       .  S
C1284      C1285   1.402       .  A
C1284      H1289   1.084       .  S
C1285      C1286   1.409       .  A
C1286     Br1287   1.920       .  S
C1291      C1292   1.402       .  A
C1291      C1296   1.402       .  A
C1291      H1298   1.084       .  S
C1292      C1293   1.408       .  A
C1293      C1294   1.397       .  A
C1293     Br1300   1.919       .  S
C1294      C1295   1.402       .  A
C1294      H1299   1.084       .  S
C1295      C1296   1.412       .  A
C1296     Br1297   1.919       .  S
C1301      C1302   1.408       .  A
C1301      C1306   1.397       .  A
C1301      H1308   1.083       .  S
C1302      C1303   1.413       .  A
C1303      C1304   1.395       .  A
C1303     Br1310   1.923       .  S
C1304      C1305   1.406       .  A
C1304      H1309   1.083       .  S
C1305      C1306   1.412       .  A
C1306     Br1307   1.923       .  S
C1311      C1312   1.403       .  A
C1311      C1316   1.399       .  A
C1311      H1318   1.084       .  S
C1312      C1313   1.405       .  A
C1313      C1314   1.399       .  A
C1313     Br1320   1.918       .  S
C1314      C1315   1.407       .  A
C1314      H1319   1.083       .  S
C1315      C1316   1.411       .  A
C1316     Br1317   1.921       .  S
C1321      C1322   1.406       .  A
C1321      C1326   1.398       .  A
C1321      H1328   1.083       .  S
C1322      C1323   1.413       .  A
C1323      C1324   1.398       .  A
C1323     Br1330   1.921       .  S
C1324      C1325   1.400       .  A
C1324      H1329   1.083       .  S
C1325      C1326   1.406       .  A
C1326     Br1327   1.919       .  S
C1331      C1332   1.407   1_556  A
C1331      C1336   1.396       .  A
C1331      H1338   1.082       .  S
C1332      C1333   1.415       .  A
C1333      C1334   1.396       .  A
C1333     Br1340   1.924       .  S
C1334      C1335   1.405   1_554  A
C1334      H1339   1.082       .  S
C1335      C1336   1.413       .  A
C1336     Br1337   1.923       .  S
C1341      C1342   1.410       .  A
C1341      C1346   1.401       .  A
C1341      H1348   1.083       .  S
C1342      C1343   1.416       .  A
C1343      C1344   1.399       .  A
C1343     Br1350   1.923       .  S
C1344      C1345   1.405       .  A
C1344      H1349   1.084       .  S
C1345      C1346   1.408       .  A
C1346     Br1347   1.919       .  S
C1351      C1352   1.406       .  A
C1351      C1356   1.398       .  A
C1351      H1358   1.083       .  S
C1352      C1353   1.415       .  A
C1353      C1354   1.401       .  A
C1353     Br1360   1.922       .  S
C1354      C1355   1.401       .  A
C1354      H1359   1.084       .  S
C1355      C1356   1.405       .  A
C1356     Br1357   1.918       .  S
C1361      C1362   1.401       .  A
C1361      C1366   1.404       .  A
C1361      H1368   1.083       .  S
C1362      C1363   1.409       .  A
C1363      C1364   1.398       .  A
C1363     Br1370   1.922       .  S
C1364      C1365   1.409       .  A
C1364      H1369   1.083       .  S
C1365      C1366   1.422       .  A
C1366     Br1367   1.922       .  S
C1371      C1372   1.403       .  A
C1371      C1376   1.396       .  A
C1371      H1378   1.083       .  S
C1372      C1373   1.408       .  A
C1373      C1374   1.400       .  A
C1373     Br1380   1.920       .  S
C1374      C1375   1.410       .  A
C1374      H1379   1.083       .  S
C1375      C1376   1.416       .  A
C1376     Br1377   1.924       .  S
C1381      C1382   1.400       .  A
C1381      C1386   1.403       .  A
C1381      H1388   1.083       .  S
C1382      C1383   1.404       .  A
C1383      C1384   1.398       .  A
C1383     Br1390   1.918       .  S
C1384      C1385   1.410       .  A
C1384      H1389   1.083       .  S
C1385      C1386   1.419       .  A
C1386     Br1387   1.921       .  S
C1391      C1392   1.405       .  A
C1391      C1396   1.399       .  A
C1391      H1398   1.084       .  S
C1392      C1393   1.408       .  A
C1393      C1394   1.395       .  A
C1393     Br1400   1.918       .  S
C1394      C1395   1.404       .  A
C1394      H1399   1.084       .  S
C1395      C1396   1.411       .  A
C1396     Br1397   1.921       .  S
C1401      C1402   1.401       .  A
C1401      C1406   1.398       .  A
C1401      H1408   1.084       .  S
C1402      C1403   1.404       .  A
C1403      C1404   1.398       .  A
C1403     Br1410   1.918       .  S
C1404      C1405   1.407       .  A
C1404      H1409   1.083       .  S
C1405      C1406   1.413       .  A
C1406     Br1407   1.922       .  S
C1411      C1412   1.402       .  A
C1411      C1416   1.396       .  A
C1411      H1418   1.083       .  S
C1412      C1413   1.413       .  A
C1413      C1414   1.397       .  A
C1413     Br1420   1.923       .  S
C1414      C1415   1.409       .  A
C1414      H1419   1.082       .  S
C1415      C1416   1.418       .  A
C1416     Br1417   1.918       .  S
C1421      C1422   1.396       .  A
C1421      C1426   1.393       .  A
C1421      H1428   1.084       .  S
C1422      C1423   1.406       .  A
C1423      C1424   1.399       .  A
C1423     Br1430   1.919       .  S
C1424      C1425   1.409       .  A
C1424      H1429   1.083       .  S
C1425      C1426   1.421       .  A
C1426     Br1427   1.925       .  S
C1431      C1432   1.399       .  A
C1431      C1436   1.397       .  A
C1431      H1438   1.084       .  S
C1432      C1433   1.409       .  A
C1433      C1434   1.393       .  A
C1433     Br1440   1.922       .  S
C1434      C1435   1.405       .  A
C1434      H1439   1.083       .  S
C1435      C1436   1.418       .  A
C1436     Br1437   1.923       .  S
C1441      C1442   1.406       .  A
C1441      C1446   1.394       .  A
C1441      H1448   1.083       .  S
C1442      C1443   1.412       .  A
C1443      C1444   1.396       .  A
C1443     Br1450   1.922       .  S
C1444      C1445   1.406       .  A
C1444      H1449   1.083       .  S
C1445      C1446   1.415       .  A
C1446     Br1447   1.925       .  S
C1451      C1452   1.407       .  A
C1451      C1456   1.400       .  A
C1451      H1458   1.084       .  S
C1452      C1453   1.416       .  A
C1453      C1454   1.402       .  A
C1453     Br1460   1.921       .  S
C1454      C1455   1.401       .  A
C1454      H1459   1.084       .  S
C1455      C1456   1.406       .  A
C1456     Br1457   1.919       .  S
C1461      C1462   1.400       .  A
C1461      C1466   1.399       .  A
C1461      H1468   1.083       .  S
C1462      C1463   1.404       .  A
C1463      C1464   1.397       .  A
C1463     Br1470   1.919       .  S
C1464      C1465   1.410       .  A
C1464      H1469   1.083       .  S
C1465      C1466   1.418       .  A
C1466     Br1467   1.922       .  S
C1471      C1472   1.406       .  A
C1471      C1476   1.397       .  A
C1471      H1478   1.083       .  S
C1472      C1473   1.416       .  A
C1473      C1474   1.402       .  A
C1473     Br1480   1.921       .  S
C1474      C1475   1.402       .  A
C1474      H1479   1.084       .  S
C1475      C1476   1.410       .  A
C1476     Br1477   1.922       .  S
C1481      C1482   1.404       .  A
C1481      C1486   1.396       .  A
C1481      H1488   1.084       .  S
C1482      C1483   1.418       .  A
C1483      C1484   1.403       .  A
C1483     Br1490   1.921       .  S
C1484      C1485   1.401       .  A
C1484      H1489   1.084       .  S
C1485      C1486   1.407       .  A
C1486     Br1487   1.917       .  S
C1491      C1492   1.412       .  A
C1491      C1496   1.408       .  A
C1491      H1498   1.083       .  S
C1492      C1493   1.419       .  A
C1493      C1494   1.401       .  A
C1493     Br1500   1.924       .  S
C1494      C1495   1.405       .  A
C1494      H1499   1.084       .  S
C1495      C1496   1.411       .  A
C1496     Br1497   1.919       .  S
C1501      C1502   1.403       .  A
C1501      C1506   1.406       .  A
C1501      H1508   1.083       .  S
C1502      C1503   1.407       .  A
C1503      C1504   1.399       .  A
C1503     Br1510   1.919       .  S
C1504      C1505   1.409       .  A
C1504      H1509   1.083       .  S
C1505      C1506   1.419       .  A
C1506     Br1507   1.921       .  S
C1511      C1512   1.403       .  A
C1511      C1516   1.403       .  A
C1511      H1518   1.083       .  S
C1512      C1513   1.405       .  A
C1513      C1514   1.393       .  A
C1513     Br1520   1.918       .  S
C1514      C1515   1.405       .  A
C1514      H1519   1.084       .  S
C1515      C1516   1.415       .  A
C1516     Br1517   1.921       .  S
C1521      C1522   1.399       .  A
C1521      C1526   1.398       .  A
C1521      H1528   1.084       .  S
C1522      C1523   1.403       .  A
C1523      C1524   1.395       .  A
C1523     Br1530   1.919       .  S
C1524      C1525   1.407       .  A
C1524      H1529   1.083       .  S
C1525      C1526   1.415       .  A
C1526     Br1527   1.922       .  S
C1531      C1532   1.408       .  A
C1531      C1536   1.398       .  A
C1531      H1538   1.083       .  S
C1532      C1533   1.412       .  A
C1533      C1534   1.399       .  A
C1533     Br1540   1.920       .  S
C1534      C1535   1.408       .  A
C1534      H1539   1.083       .  S
C1535      C1536   1.413       .  A
C1536     Br1537   1.922       .  S
C1541      C1542   1.403       .  A
C1541      C1546   1.398       .  A
C1541      H1548   1.084       .  S
C1542      C1543   1.414       .  A
C1543      C1544   1.400       .  A
C1543     Br1550   1.920       .  S
C1544      C1545   1.400       .  A
C1544      H1549   1.084       .  S
C1545      C1546   1.407       .  A
C1546     Br1547   1.919       .  S
C1551      C1552   1.402       .  A
C1551      C1556   1.405       .  A
C1551      H1558   1.083       .  S
C1552      C1553   1.404       .  A
C1553      C1554   1.395       .  A
C1553     Br1560   1.920       .  S
C1554      C1555   1.410       .  A
C1554      H1559   1.083       .  S
C1555      C1556   1.421       .  A
C1556     Br1557   1.922       .  S
C1561      C1562   1.411       .  A
C1561      C1566   1.405       .  A
C1561      H1568   1.083       .  S
C1562      C1563   1.418       .  A
C1563      C1564   1.398       .  A
C1563     Br1570   1.924       .  S
C1564      C1565   1.405       .  A
C1564      H1569   1.083       .  S
C1565      C1566   1.412       .  A
C1566     Br1567   1.920       .  S
C1571      C1572   1.408       .  A
C1571      C1576   1.400       .  A
C1571      H1578   1.083       .  S
C1572      C1573   1.416       .  A
C1573      C1574   1.399       .  A
C1573     Br1580   1.922       .  S
C1574      C1575   1.400       .  A
C1574      H1579   1.084       .  S
C1575      C1576   1.407       .  A
C1576     Br1577   1.919       .  S
C1581      C1582   1.406       .  A
C1581      C1586   1.395       .  A
C1581      H1588   1.083       .  S
C1582      C1583   1.421       .  A
C1583      C1584   1.404       .  A
C1583     Br1590   1.922       .  S
C1584      C1585   1.401       .  A
C1584      H1589   1.083       .  S
C1585      C1586   1.410       .  A
C1586     Br1587   1.922       .  S
C1591      C1592   1.400       .  A
C1591      C1596   1.400       .  A
C1591      H1598   1.084       .  S
C1592      C1593   1.407       .  A
C1593      C1594   1.395       .  A
C1593     Br1600   1.920       .  S
C1594      C1595   1.407       .  A
C1594      H1599   1.083       .  S
C1595      C1596   1.419       .  A
C1596     Br1597   1.923       .  S
C1601      C1602   1.404       .  A
C1601      C1606   1.403       .  A
C1601      H1608   1.083       .  S
C1602      C1603   1.406       .  A
C1603      C1604   1.398       .  A
C1603     Br1610   1.919       .  S
C1604      C1605   1.407       .  A
C1604      H1609   1.083       .  S
C1605      C1606   1.412       .  A
C1606     Br1607   1.920       .  S
C1611      C1612   1.409       .  A
C1611      C1616   1.402       .  A
C1611      H1618   1.083       .  S
C1612      C1613   1.421       .  A
C1613      C1614   1.397       .  A
C1613     Br1620   1.925       .  S
C1614      C1615   1.398       .  A
C1614      H1619   1.084       .  S
C1615      C1616   1.406       .  A
C1616     Br1617   1.919       .  S
C1621      C1622   1.410       .  A
C1621      C1626   1.395       .  A
C1621      H1628   1.083       .  S
C1622      C1623   1.420       .  A
C1623      C1624   1.403       .  A
C1623     Br1630   1.921       .  S
C1624      C1625   1.400       .  A
C1624      H1629   1.083       .  S
C1625      C1626   1.405       .  A
C1626     Br1627   1.921       .  S
C1631      C1632   1.401       .  A
C1631      C1636   1.403       .  A
C1631      H1638   1.083       .  S
C1632      C1633   1.406       .  A
C1633      C1634   1.400       .  A
C1633     Br1640   1.919       .  S
C1634      C1635   1.409       .  A
C1634      H1639   1.083       .  S
C1635      C1636   1.419       .  A
C1636     Br1637   1.922       .  S
C1641      C1642   1.405       .  A
C1641      C1646   1.399       .  A
C1641      H1648   1.084       .  S
C1642      C1643   1.417       .  A
C1643      C1644   1.402       .  A
C1643     Br1650   1.921       .  S
C1644      C1645   1.400       .  A
C1644      H1649   1.084       .  S
C1645      C1646   1.408       .  A
C1646     Br1647   1.919       .  S
C1651      C1652   1.400       .  A
C1651      C1656   1.397   1_545  A
C1651      H1658   1.084       .  S
C1652      C1653   1.406       .  A
C1653      C1654   1.396   1_545  A
C1653     Br1660   1.920       .  S
C1654      C1655   1.406       .  A
C1654      H1659   1.084       .  S
C1655      C1656   1.415       .  A
C1656     Br1657   1.921       .  S
C1661      C1662   1.404       .  A
C1661      C1666   1.396       .  A
C1661      H1668   1.084       .  S
C1662      C1663   1.411       .  A
C1663      C1664   1.399       .  A
C1663     Br1670   1.920       .  S
C1664      C1665   1.400       .  A
C1664      H1669   1.084       .  S
C1665      C1666   1.404       .  A
C1666     Br1667   1.919       .  S
C1671      C1672   1.397       .  A
C1671      C1676   1.398       .  A
C1671      H1678   1.084       .  S
C1672      C1673   1.406       .  A
C1673      C1674   1.396       .  A
C1673     Br1680   1.920       .  S
C1674      C1675   1.405       .  A
C1674      H1679   1.084       .  S
C1675      C1676   1.419       .  A
C1676     Br1677   1.923       .  S
C1681      C1682   1.401       .  A
C1681      C1686   1.396       .  A
C1681      H1688   1.084       .  S
C1682      C1683   1.406       .  A
C1683      C1684   1.401       .  A
C1683     Br1690   1.918       .  S
C1684      C1685   1.408       .  A
C1684      H1689   1.083       .  S
C1685      C1686   1.413       .  A
C1686     Br1687   1.922       .  S
C1691      C1692   1.402       .  A
C1691      C1696   1.401       .  A
C1691      H1698   1.084       .  S
C1692      C1693   1.407       .  A
C1693      C1694   1.396       .  A
C1693     Br1700   1.919       .  S
C1694      C1695   1.402       .  A
C1694      H1699   1.084       .  S
C1695      C1696   1.410       .  A
C1696     Br1697   1.919       .  S
C1701      C1702   1.403       .  A
C1701      C1706   1.395       .  A
C1701      H1708   1.083       .  S
C1702      C1703   1.409       .  A
C1703      C1704   1.396       .  A
C1703     Br1710   1.923       .  S
C1704      C1705   1.408       .  A
C1704      H1709   1.082       .  S
C1705      C1706   1.415       .  A
C1706     Br1707   1.924       .  S
C1711      C1712   1.406       .  A
C1711      C1716   1.399       .  A
C1711      H1718   1.083       .  S
C1712      C1713   1.420       .  A
C1713      C1714   1.404       .  A
C1713     Br1720   1.921       .  S
C1714      C1715   1.400       .  A
C1714      H1719   1.083       .  S
C1715      C1716   1.408       .  A
C1716     Br1717   1.921       .  S
C1721      C1722   1.405       .  A
C1721      C1726   1.398       .  A
C1721      H1728   1.083       .  S
C1722      C1723   1.411       .  A
C1723      C1724   1.398       .  A
C1723     Br1730   1.921       .  S
C1724      C1725   1.401       .  A
C1724      H1729   1.083       .  S
C1725      C1726   1.405       .  A
C1726     Br1727   1.917       .  S
C1731      C1732   1.405       .  A
C1731      C1736   1.399       .  A
C1731      H1738   1.083       .  S
C1732      C1733   1.415       .  A
C1733      C1734   1.402       .  A
C1733     Br1740   1.920       .  S
C1734      C1735   1.400       .  A
C1734      H1739   1.083       .  S
C1735      C1736   1.408       .  A
C1736     Br1737   1.919       .  S
C1741      C1742   1.406       .  A
C1741      C1746   1.396       .  A
C1741      H1748   1.083       .  S
C1742      C1743   1.420       .  A
C1743      C1744   1.400       .  A
C1743     Br1750   1.923       .  S
C1744      C1745   1.400       .  A
C1744      H1749   1.084       .  S
C1745      C1746   1.409       .  A
C1746     Br1747   1.921       .  S
C1751      C1752   1.407       .  A
C1751      C1756   1.402       .  A
C1751      H1758   1.083       .  S
C1752      C1753   1.417       .  A
C1753      C1754   1.399       .  A
C1753     Br1760   1.922       .  S
C1754      C1755   1.399       .  A
C1754      H1759   1.083       .  S
C1755      C1756   1.407       .  A
C1756     Br1757   1.918       .  S
C1761      C1762   1.398       .  A
C1761      C1766   1.398       .  A
C1761      H1768   1.084       .  S
C1762      C1763   1.407       .  A
C1763      C1764   1.401       .  A
C1763     Br1770   1.918       .  S
C1764      C1765   1.408       .  A
C1764      H1769   1.083       .  S
C1765      C1766   1.418       .  A
C1766     Br1767   1.918       .  S
C1771      C1772   1.402       .  A
C1771      C1776   1.395       .  A
C1771      H1778   1.084       .  S
C1772      C1773   1.407       .  A
C1773      C1774   1.404       .  A
C1773     Br1780   1.918       .  S
C1774      C1775   1.407       .  A
C1774      H1779   1.084       .  S
C1775      C1776   1.407       .  A
C1776     Br1777   1.920       .  S
C1781      C1782   1.402       .  A
C1781      C1786   1.396       .  A
C1781      H1788   1.084       .  S
C1782      C1783   1.410       .  A
C1783      C1784   1.404       .  A
C1783     Br1790   1.919       .  S
C1784      C1785   1.410       .  A
C1784      H1789   1.083       .  S
C1785      C1786   1.418       .  A
C1786     Br1787   1.924       .  S
C1791      C1792   1.402       .  A
C1791      C1796   1.404       .  A
C1791      H1798   1.083       .  S
C1792      C1793   1.410       .  A
C1793      C1794   1.396       .  A
C1793     Br1800   1.923       .  S
C1794      C1795   1.407       .  A
C1794      H1799   1.083       .  S
C1795      C1796   1.420       .  A
C1796     Br1797   1.922       .  S
C1801      C1802   1.406       .  A
C1801      C1806   1.397       .  A
C1801      H1808   1.083       .  S
C1802      C1803   1.412       .  A
C1803      C1804   1.396       .  A
C1803     Br1810   1.922       .  S
C1804      C1805   1.406       .  A
C1804      H1809   1.083       .  S
C1805      C1806   1.414       .  A
C1806     Br1807   1.923       .  S
C1811      C1812   1.404       .  A
C1811      C1816   1.397       .  A
C1811      H1818   1.084       .  S
C1812      C1813   1.416       .  A
C1813      C1814   1.403       .  A
C1813     Br1820   1.922       .  S
C1814      C1815   1.403       .  A
C1814      H1819   1.084       .  S
C1815      C1816   1.410       .  A
C1816     Br1817   1.920       .  S
C1821      C1822   1.411       .  A
C1821      C1826   1.404       .  A
C1821      H1828   1.083       .  S
C1822      C1823   1.421       .  A
C1823      C1824   1.401       .  A
C1823     Br1830   1.924       .  S
C1824      C1825   1.403       .  A
C1824      H1829   1.084       .  S
C1825      C1826   1.410       .  A
C1826     Br1827   1.919       .  S
C1831      C1832   1.408       .  A
C1831      C1836   1.402       .  A
C1831      H1838   1.083       .  S
C1832      C1833   1.415       .  A
C1833      C1834   1.400       .  A
C1833     Br1840   1.922       .  S
C1834      C1835   1.403       .  A
C1834      H1839   1.084       .  S
C1835      C1836   1.407       .  A
C1836     Br1837   1.918       .  S
C1841      C1842   1.408       .  A
C1841      C1846   1.396       .  A
C1841      H1848   1.083       .  S
C1842      C1843   1.423       .  A
C1843      C1844   1.401       .  A
C1843     Br1850   1.923       .  S
C1844      C1845   1.398       .  A
C1844      H1849   1.083       .  S
C1845      C1846   1.405       .  A
C1846     Br1847   1.921       .  S
C1851      C1852   1.404       .  A
C1851      C1856   1.401       .  A
C1851      H1858   1.084       .  S
C1852      C1853   1.413       .  A
C1853      C1854   1.401       .  A
C1853     Br1860   1.920       .  S
C1854      C1855   1.401       .  A
C1854      H1859   1.084       .  S
C1855      C1856   1.408       .  A
C1856     Br1857   1.919       .  S
C1861      C1862   1.403       .  A
C1861      C1866   1.397       .  A
C1861      H1868   1.084       .  S
C1862      C1863   1.406       .  A
C1863      C1864   1.404       .  A
C1863     Br1870   1.919       .  S
C1864      C1865   1.413       .  A
C1864      H1869   1.083       .  S
C1865      C1866   1.416       .  A
C1866     Br1867   1.922       .  S
C1871      C1872   1.400       .  A
C1871      C1876   1.401       .  A
C1871      H1878   1.083       .  S
C1872      C1873   1.405       .  A
C1873      C1874   1.396       .  A
C1873     Br1880   1.918       .  S
C1874      C1875   1.405       .  A
C1874      H1879   1.083       .  S
C1875      C1876   1.417       .  A
C1876     Br1877   1.921       .  S
C1881      C1882   1.400       .  A
C1881      C1886   1.400       .  A
C1881      H1888   1.084       .  S
C1882      C1883   1.406       .  A
C1883      C1884   1.398       .  A
C1883     Br1890   1.919       .  S
C1884      C1885   1.404       .  A
C1884      H1889   1.083       .  S
C1885      C1886   1.414       .  A
C1886     Br1887   1.920       .  S
C1891      C1892   1.406       .  A
C1891      C1896   1.399       .  A
C1891      H1898   1.083       .  S
C1892      C1893   1.412       .  A
C1893      C1894   1.396       .  A
C1893     Br1900   1.922       .  S
C1894      C1895   1.407       .  A
C1894      H1899   1.082       .  S
C1895      C1896   1.415       .  A
C1896     Br1897   1.923       .  S
C1901      C1902   1.400       .  A
C1901      C1906   1.400       .  A
C1901      H1908   1.084       .  S
C1902      C1903   1.406       .  A
C1903      C1904   1.400       .  A
C1903     Br1910   1.919       .  S
C1904      C1905   1.409       .  A
C1904      H1909   1.083       .  S
C1905      C1906   1.418       .  A
C1906     Br1907   1.922       .  S
C1911      C1912   1.401       .  A
C1911      C1916   1.400       .  A
C1911      H1918   1.083       .  S
C1912      C1913   1.409       .  A
C1913      C1914   1.396       .  A
C1913     Br1920   1.922   1_455  S
C1914      C1915   1.407       .  A
C1914      H1919   1.083   1_455  S
C1915      C1916   1.418       .  A
C1916     Br1917   1.922       .  S
C1921      C1922   1.410       .  A
C1921      C1926   1.401       .  A
C1921      H1928   1.079       .  S
C1922      C1923   1.413       .  A
C1923      C1924   1.400       .  A
C1923     Br1930   1.921       .  S
C1924      C1925   1.405       .  A
C1924      H1929   1.079       .  S
C1925      C1926   1.405       .  A
C1926     Br1927   1.919       .  S
C1931      C1932   1.405   1_655  A
C1931      C1936   1.398       .  A
C1931      H1938   1.083       .  S
C1932      C1933   1.413       .  A
C1933      C1934   1.395       .  A
C1933     Br1940   1.923       .  S
C1934      C1935   1.405   1_455  A
C1934      H1939   1.083       .  S
C1935      C1936   1.417       .  A
C1936     Br1937   1.925       .  S
C1941      C1942   1.401       .  A
C1941      C1946   1.397       .  A
C1941      H1948   1.084       .  S
C1942      C1943   1.407       .  A
C1943      C1944   1.402       .  A
C1943     Br1950   1.918       .  S
C1944      C1945   1.409       .  A
C1944      H1949   1.083       .  S
C1945      C1946   1.417       .  A
C1946     Br1947   1.924   1_556  S
C1951      C1952   1.402       .  A
C1951      C1956   1.400       .  A
C1951      H1958   1.084       .  S
C1952      C1953   1.408       .  A
C1953      C1954   1.396       .  A
C1953     Br1960   1.922   1_565  S
C1954      C1955   1.408       .  A
C1954      H1959   1.083   1_565  S
C1955      C1956   1.419       .  A
C1956     Br1957   1.923       .  S
C1961      C1962   1.410       .  A
C1961      C1966   1.403       .  A
C1961      H1968   1.083       .  S
C1962      C1963   1.416       .  A
C1963      C1964   1.400       .  A
C1963     Br1970   1.922   1_655  S
C1964      C1965   1.402       .  A
C1964      H1969   1.084       .  S
C1965      C1966   1.406       .  A
C1966     Br1967   1.918       .  S
C1971      C1972   1.409       .  A
C1971      C1976   1.397       .  A
C1971      H1978   1.083       .  S
C1972      C1973   1.420       .  A
C1973      C1974   1.405       .  A
C1973     Br1980   1.922       .  S
C1974      C1975   1.404       .  A
C1974      H1979   1.083       .  S
C1975      C1976   1.410       .  A
C1976     Br1977   1.922       .  S
C1981      C1982   1.411       .  A
C1981      C1986   1.401       .  A
C1981      H1988   1.083       .  S
C1982      C1983   1.420       .  A
C1983      C1984   1.401       .  A
C1983     Br1990   1.922       .  S
C1984      C1985   1.401       .  A
C1984      H1989   1.084       .  S
C1985      C1986   1.405       .  A
C1986     Br1987   1.919       .  S
C1991      C1992   1.400       .  A
C1991      C1996   1.400       .  A
C1991      H1998   1.084       .  S
C1992      C1993   1.406       .  A
C1993      C1994   1.399       .  A
C1993     Br2000   1.919       .  S
C1994      C1995   1.406       .  A
C1994      H1999   1.084       .  S
C1995      C1996   1.418       .  A
C1996     Br1997   1.923       .  S
