geometry optimzed in LAMMPS
_audit_creation_date              2020-11-30 
_audit_creation_method            'lammps2cif' 
_symmetry_space_group_name_H-M    'P1' 
_symmetry_Int_Tables_number       1 
_symmetry_cell_setting            triclinic 
loop_ 
_symmetry_equiv_pos_as_xyz 
  x,y,z 
_cell_length_a                    32.25858188 
_cell_length_b                    32.78355874978689 
_cell_length_c                    34.79624967178688 
_cell_angle_alpha                 90.04096373992046 
_cell_angle_beta                  89.73123107798662 
_cell_angle_gamma                 89.5919505068157 
loop_ 
_atom_site_label 
_atom_site_type_symbol 
_atom_site_fract_x 
_atom_site_fract_y 
_atom_site_fract_z 
_atom_site_charge 
Zr1        Zr  0.98494625  0.99107679  0.07913170     2.17500
O2          O  0.99288876  0.99424957  0.14882417    -0.52000
O3          O  0.93632966  0.93711417  0.09753264    -0.75200
O4          O  0.95245290  0.05291344  0.10956865    -0.82000
O5          O  0.07294699  0.90571182  0.06398976    -0.83800
O6          O  0.92804555  0.09614119  0.06326046    -0.79400
O7          O  0.04096517  0.94874259  0.10618904    -0.91000
O8          O  0.89597990  0.95167458  0.04843428    -0.77000
O9          O  0.93102691  0.00462938  0.03328328    -0.86500
O10         O  0.98785569  0.93579791  0.03372757    -0.86200
O11         O  0.00096907  0.05479240  0.04781480    -0.72900
O12         O  0.05261876  0.99153270  0.04979331    -0.85100
Zr13       Zr  0.01753950  0.01451399  0.92686688     2.26400
Zr14       Zr  0.94725682  0.06750827  0.00100566     2.06300
Zr15       Zr  0.05450079  0.93749653  0.00323093     2.10000
Zr16       Zr  0.93451322  0.94956911  0.98881900     1.78800
O17         O  0.12935526  0.93240351  0.01084191    -0.93900
O18         O  0.86350071  0.96232386  0.96824998    -0.41700
O19         O  0.00088664  0.95022532  0.95704137    -0.78300
O20         O  0.94950411  0.01156500  0.95635565    -0.97000
O21         O  0.01492996  0.06931242  0.97194365    -0.90300
O22         O  0.07088104  0.00083726  0.97265174    -0.93100
C23         C  0.90478431  0.92909828  0.07706056     1.00600
C24         C  0.06616169  0.91901864  0.09805239     1.13500
C25         C  0.93528530  0.08681999  0.09847422     1.04300
O26         O  0.87210772  0.07465215  0.00300083    -0.95300
O27         O  0.92065226  0.09032373  0.93814301    -0.91000
O28         O  0.96373162  0.05710069  0.89649716    -0.84200
C29         C  0.93206825  0.08026789  0.90388957     1.11000
O30         O  0.09823539  0.07612430  0.07852389    -0.97300
Zr31       Zr  0.06703140  0.05442304  0.01835931     1.88900
O32         O  0.07621270  0.05824569  0.90629479    -0.73900
O33         O  0.96223483  0.14009810  0.99625147    -0.53200
O34         O  0.05967811  0.12731515  0.03063029    -0.97900
O35         O  0.14019062  0.03720810  0.02634318    -0.55100
O36         O  0.09861610  0.08300322  0.96303652    -0.74400
C37         C  0.10022623  0.08089270  0.92647652     0.97900
O38         O  0.01155325  0.01470046  0.85696640    -0.63300
O39         O  0.04165329  0.86500249  0.99368109    -0.58100
O40         O  0.04274656  0.95010779  0.89792475    -0.94700
O41         O  0.08309735  0.91742294  0.94166171    -0.93200
O42         O  0.93326522  0.87581983  0.99714489    -0.93500
O43         O  0.90799722  0.91744207  0.93096305    -0.92300
C44         C  0.06834813  0.92167456  0.90784925     1.16700
H45         H  0.98417000  0.90972657  0.04616966     0.32700
H46         H  0.92731431  0.01289996  0.93791731     0.43500
H47         H  0.09795480  0.99924641  0.96030626     0.37100
H48         H  0.00364434  0.07698238  0.06567599     0.33500
H49         H  0.84645174  0.94320982  0.98354345     0.25300
H50         H  0.93469104  0.15343795  0.99430046     0.31300
H51         H  0.05368616  0.13954513  0.00523011     0.37200
H52         H  0.95490073  0.86536780  0.97935786     0.31600
H53         H  0.06954434  0.85219094  0.99337119     0.30500
H54         H  0.13604422  0.90338038  0.00568140     0.32200
H55         H  0.15067704  0.03070007  0.00025158     0.31200
H56         H  0.92505892  0.92893158  0.90990921     0.35200
H57         H  0.03944306  0.00747543  0.84696858     0.27900
H58         H  0.96457081  0.99734554  0.15958737     0.32100
H59         H  0.08995628  0.05502880  0.09735694     0.35000
H60         H  0.02889179  0.85546334  0.01795601     0.27600
H61         H  0.99392483  0.99103604  0.85062284     0.40500
H62         H  0.86284374  0.05460983  0.02244194     0.30500
H63         H  0.85652577  0.98959749  0.97876383     0.38100
H64         H  0.14022377  0.01070587  0.03996642     0.30000
H65         H  0.97249065  0.14799324  0.02195949     0.30100
H66         H  0.00687001  0.02042500  0.15420907     0.30300
C67         C  0.08946679  0.38516279  0.10425151     0.79500
N68         N  0.12366763  0.38440876  0.12743919    -0.78800
C69         C  0.12961204  0.35207593  0.15160624     0.82000
N70         N  0.10188163  0.32137983  0.15201080    -0.78700
C71         C  0.06849029  0.32144507  0.12872930     0.82100
N72         N  0.06238537  0.35337488  0.10466814    -0.80500
C73         C  0.93148308  0.12109005  0.12620173     0.79500
N74         N  0.89627239  0.12864993  0.14728449    -0.78800
C75         C  0.89411191  0.16274896  0.17011093     0.82000
N76         N  0.92620439  0.18925643  0.17050474    -0.78700
C77         C  0.96023304  0.18304055  0.14849166     0.82100
N78         N  0.96246432  0.14916191  0.12604656    -0.80500
C79         C  0.82578898  0.15787773  0.38405889     0.79500
N80         N  0.79928336  0.15808212  0.41465221    -0.78800
C81         C  0.81091119  0.14205770  0.44864705     0.82000
N82         N  0.84903045  0.12627976  0.45240771    -0.78700
C83         C  0.87605415  0.12536741  0.42279604     0.82100
N84         N  0.86468891  0.14092179  0.38777161    -0.80500
C85         C  0.67705591  0.13375432  0.64127870     0.79500
N86         N  0.70757418  0.14164492  0.61516320    -0.78800
C87         C  0.70309781  0.13024997  0.57811057     0.82000
N88         N  0.66890846  0.11032727  0.56741209    -0.78700
C89         C  0.63794518  0.10209440  0.59230474     0.82100
N90         N  0.64135119  0.11448767  0.62978982    -0.80500
Zr91       Zr  0.66795539  0.27200436  0.22037087     2.17500
O92         O  0.59292651  0.27242916  0.21168364    -0.52000
O93         O  0.65736112  0.31486381  0.16323473    -0.75200
O94         O  0.63101782  0.31548995  0.26788532    -0.82000
O95         O  0.68480310  0.16964235  0.16695664    -0.83800
O96         O  0.67405310  0.35012458  0.30764752    -0.79400
O97         O  0.63502456  0.21110573  0.19293236    -0.91000
O98         O  0.72102267  0.33102106  0.14003082    -0.77000
O99         O  0.71758202  0.32447319  0.23047429    -0.86500
O100        O  0.72317119  0.25716868  0.17629089    -0.86200
O101        O  0.68953933  0.26436349  0.28648185    -0.72900
O102        O  0.69503774  0.20524959  0.23568389    -0.85100
Zr103      Zr  0.82248197  0.23797087  0.26843605     2.26400
Zr104      Zr  0.74035068  0.31669728  0.29605165     2.06300
Zr105      Zr  0.75121030  0.19159850  0.19236914     2.10000
Zr106      Zr  0.77247868  0.30954664  0.18640899     1.78800
O107        O  0.74917235  0.11807396  0.20208865    -0.93900
O108        O  0.77520146  0.38361502  0.19149250    -0.41700
O109        O  0.80111803  0.24411661  0.20241891    -0.78300
O110        O  0.79616357  0.30484288  0.25140444    -0.97000
O111        O  0.76715236  0.25059886  0.31222370    -0.90300
O112        O  0.77382472  0.18479942  0.25767700    -0.93100
C113        C  0.68138893  0.33030821  0.13760771     1.00600
C114        C  0.64685203  0.17915107  0.17409850     1.13500
C115        C  0.63788683  0.34016292  0.29615942     1.04300
O116        O  0.75155817  0.38998671  0.29222135    -0.95300
O117        O  0.80314898  0.33426921  0.33079080    -0.91000
O118        O  0.85378442  0.29451816  0.30442393    -0.84200
C119        C  0.84132846  0.32511707  0.32469414     1.11000
O120        O  0.64716835  0.17397309  0.30954686    -0.97300
Zr121      Zr  0.71780883  0.19847751  0.30055693     1.88900
O122        O  0.83426277  0.19253256  0.32364538    -0.73900
O123        O  0.72471744  0.31473417  0.36459483    -0.53200
O124        O  0.69078210  0.21411378  0.36446945    -0.97900
O125        O  0.71224447  0.12450051  0.29535594    -0.55100
O126        O  0.77016661  0.17523397  0.34486403    -0.74400
C127        C  0.80971930  0.17565445  0.34799967     0.97900
O128        O  0.89763329  0.23539245  0.26906901    -0.63300
O129        O  0.76039081  0.18637884  0.12292620    -0.58100
O130        O  0.86173426  0.19919774  0.22016125    -0.94700
O131        O  0.82064827  0.16608094  0.17752878    -0.93200
O132        O  0.80023234  0.29524309  0.12255353    -0.93500
O133        O  0.84269013  0.33302022  0.17364686    -0.92300
C134        C  0.85625397  0.17553431  0.19106540     1.16700
H135        H  0.71344489  0.25612106  0.15014230     0.32700
H136        H  0.81688403  0.32599876  0.25348467     0.43500
H137        H  0.78641975  0.15835634  0.26219993     0.37100
H138        H  0.66696647  0.26704022  0.30458823     0.33500
H139        H  0.74594242  0.39261588  0.19391660     0.25300
H140        H  0.72197939  0.34370241  0.37233777     0.31300
H141        H  0.71448270  0.22584134  0.37856055     0.37200
H142        H  0.78959149  0.26785876  0.11606461     0.31600
H143        H  0.75778388  0.15690122  0.11729275     0.30500
H144        H  0.75877065  0.10626625  0.17738105     0.32200
H145        H  0.74095060  0.11380527  0.29697056     0.31200
H146        H  0.86079616  0.31282489  0.18662871     0.35200
H147        H  0.90577195  0.26349116  0.26212961     0.27900
H148        H  0.58479914  0.30147453  0.20901994     0.32100
H149        H  0.64802890  0.15555474  0.33208361     0.35000
H150        H  0.73523643  0.19887016  0.11160840     0.27600
H151        H  0.90545176  0.23236486  0.29640364     0.40500
H152        H  0.73289076  0.39953903  0.27154336     0.30500
H153        H  0.78737391  0.38893689  0.21705745     0.38100
H154        H  0.70385146  0.11950840  0.26844050     0.30000
H155        H  0.69625072  0.30379757  0.36651163     0.30100
H156        H  0.58107851  0.26372776  0.23665304     0.30300
C157        C  0.84943131  0.67307668  0.61152897     0.79500
N158        N  0.88588567  0.65121505  0.61000003    -0.78800
C159        C  0.89671039  0.63239815  0.57617163     0.82000
N160        N  0.87035320  0.63344559  0.54608546    -0.78700
C161        C  0.83374180  0.65318949  0.54873107     0.82100
N162        N  0.82379921  0.67336577  0.58102707    -0.80500
C163        C  0.64967340  0.60443416  0.41307146     0.79500
N164        N  0.68292722  0.60611455  0.43655647    -0.78800
C165        C  0.71450176  0.63186410  0.43005293     0.82000
N166        N  0.71269384  0.65709169  0.39985135    -0.78700
C167        C  0.68027314  0.65620073  0.37538553     0.82100
N168        N  0.64804494  0.62964560  0.38161465    -0.80500
Zr169      Zr  0.99226617  0.42624120  0.48025445     2.17500
O170        O  0.99702407  0.35211760  0.47659601    -0.52000
O171        O  0.94618752  0.40480582  0.42776674    -0.75200
O172        O  0.95578516  0.39342814  0.53492929    -0.82000
O173        O  0.08025538  0.44454326  0.40812017    -0.83800
O174        O  0.92179368  0.43833225  0.57403729    -0.79400
O175        O  0.05847364  0.39974519  0.45357626    -0.91000
O176        O  0.91357161  0.46251160  0.40764504    -0.77000
O177        O  0.93596864  0.47189435  0.49322381    -0.86500
O178        O  0.99422603  0.47586022  0.42984120    -0.86200
O179        O  0.00604615  0.45626852  0.54235304    -0.72900
O180        O  0.05792101  0.46012735  0.48357895    -0.85100
Zr181      Zr  0.01679152  0.58608382  0.50927393     2.26400
Zr182      Zr  0.94999837  0.50351644  0.55431470     2.06300
Zr183      Zr  0.05904021  0.51059818  0.43382745     2.10000
Zr184      Zr  0.93815414  0.52099040  0.44303136     1.78800
O185        O  0.13455033  0.50884024  0.43455808    -0.93900
O186        O  0.86450527  0.52122804  0.45905496    -0.41700
O187        O  0.00278516  0.55660774  0.44703983    -0.78300
O188        O  0.95010721  0.55289846  0.50351878    -0.97000
O189        O  0.01589500  0.53639501  0.55896677    -0.90300
O190        O  0.07308943  0.54101046  0.49477866    -0.93100
C191        C  0.92171816  0.42427151  0.40508185     1.00600
C192        C  0.08266077  0.41020237  0.42557914     1.13500
C193        C  0.93233707  0.40208347  0.56418120     1.04300
O194        O  0.87491109  0.50850193  0.56068565    -0.95300
O195        O  0.92932979  0.56880519  0.58287991    -0.91000
O196        O  0.95982737  0.61744909  0.54591479    -0.84200
C197        C  0.93282337  0.60563374  0.57079333     1.11000
O198        O  0.09239235  0.42742854  0.57562312    -0.97300
Zr199      Zr  0.07140244  0.49064733  0.54424621     1.88900
O200        O  0.06583958  0.60165762  0.56164105    -0.73900
O201        O  0.96433607  0.49555304  0.62259996    -0.53200
O202        O  0.07147235  0.49231084  0.61433650    -0.97900
O203        O  0.14107360  0.46910218  0.52509657    -0.55100
O204        O  0.11186513  0.54959900  0.55975129    -0.74400
C205        C  0.09884723  0.58341660  0.57343088     0.97900
O206        O  0.01726550  0.66037693  0.50507817    -0.63300
O207        O  0.05442771  0.51623624  0.36417495    -0.58100
O208        O  0.04738413  0.62188074  0.45468185    -0.94700
O209        O  0.07731339  0.57876250  0.41126783    -0.93200
O210        O  0.94253739  0.53857064  0.37515085    -0.93500
O211        O  0.90361223  0.58483296  0.42644550    -0.92300
C212        C  0.06754945  0.61459712  0.42339051     1.16700
H213        H  0.99252854  0.46365087  0.40466240     0.32700
H214        H  0.92667352  0.57116182  0.50576507     0.43500
H215        H  0.09905149  0.55558538  0.49284545     0.37100
H216        H  0.00747332  0.43604788  0.56245953     0.33500
H217        H  0.85032695  0.51670257  0.43425176     0.25300
H218        H  0.93679733  0.49176685  0.63471375     0.31300
H219        H  0.05047031  0.51301292  0.62182996     0.37200
H220        H  0.97016568  0.55112634  0.37202138     0.31600
H221        H  0.08293741  0.51062180  0.35480577     0.30500
H222        H  0.14323809  0.52974242  0.41571209     0.32200
H223        H  0.15439239  0.49408184  0.51511817     0.31200
H224        H  0.92123070  0.60631468  0.43772885     0.35200
H225        H  0.98929587  0.66836957  0.49601966     0.27900
H226        H  0.96823462  0.34213805  0.47902235     0.32100
H227        H  0.11855223  0.43354651  0.58919143     0.35000
H228        H  0.03836376  0.49215817  0.35606972     0.27600
H229        H  0.01859230  0.67024078  0.53194458     0.40500
H230        H  0.86665274  0.53059614  0.54284475     0.30500
H231        H  0.85994915  0.49571121  0.47361515     0.38100
H232        H  0.13725004  0.45172667  0.50211897     0.30000
H233        H  0.97819199  0.46861920  0.62489596     0.30100
H234        H  0.01063818  0.34380610  0.50074050     0.30300
C235        C  0.39544511  0.84080950  0.15977398     0.79500
N236        N  0.39237034  0.87642573  0.13940803    -0.78800
C237        C  0.42526625  0.88870081  0.11756938     0.82000
N238        N  0.45925320  0.86457349  0.11448362    -0.78700
C239        C  0.46206387  0.82908993  0.13391876     0.82100
N240        N  0.43029160  0.81745632  0.15680729    -0.80500
C241        C  0.60155837  0.64472519  0.07853022     0.79500
N242        N  0.57921880  0.68000940  0.07753549    -0.78800
C243        C  0.59043747  0.71274176  0.09851278     0.82000
N244        N  0.62472840  0.71048545  0.12048737    -0.78700
C245        C  0.64826881  0.67625370  0.12193417     0.82100
N246        N  0.63600282  0.64221474  0.10184703    -0.80500
C247        C  0.14867482  0.10792808  0.32036474     0.79500
N248        N  0.12390020  0.10776108  0.35258525    -0.78800
C249        C  0.09706295  0.07605063  0.35811836     0.82000
N250        N  0.09502224  0.04598665  0.33187495    -0.78700
C251        C  0.11964926  0.04597037  0.30080228     0.82100
N252        N  0.14684936  0.07646192  0.29521212    -0.80500
C253        C  0.08995790  0.90251404  0.13095641     0.79500
N254        N  0.11021737  0.86536202  0.13208500    -0.78800
C255        C  0.13035893  0.85433897  0.16543161     0.82000
N256        N  0.13190122  0.88062293  0.19528081    -0.78700
C257        C  0.11318625  0.91712667  0.19323029     0.82100
N258        N  0.09187481  0.92749913  0.16163543    -0.80500
Zr259      Zr  0.33662573  0.76353621  0.26287866     2.17500
O260        O  0.41155260  0.75449232  0.26251639    -0.52000
O261        O  0.35605928  0.81243244  0.31187807    -0.75200
O262        O  0.37053957  0.80166569  0.21127849    -0.82000
O263        O  0.32176349  0.67213462  0.33226183    -0.83800
O264        O  0.32376195  0.83201984  0.17169475    -0.79400
O265        O  0.36859653  0.70452634  0.29401798    -0.91000
O266        O  0.30381954  0.85394701  0.29840628    -0.77000
O267        O  0.28859376  0.81785126  0.25026756    -0.86500
O268        O  0.28784091  0.76220313  0.31529541    -0.86200
O269        O  0.30690997  0.74780905  0.20116662    -0.72900
O270        O  0.30360640  0.69831136  0.26070224    -0.85100
Zr271      Zr  0.17463159  0.73826818  0.23669193     2.26400
Zr272      Zr  0.25772429  0.80217773  0.18945081     2.06300
Zr273      Zr  0.25364325  0.69756120  0.31168298     2.10000
Zr274      Zr  0.23975697  0.81567726  0.30189141     1.78800
O275        O  0.25216500  0.62331241  0.31409858    -0.93900
O276        O  0.22452976  0.88061267  0.33377931    -0.41700
O277        O  0.20523382  0.75170547  0.29861930    -0.78300
O278        O  0.20775684  0.80429513  0.24080567    -0.97000
O279        O  0.22427326  0.73713371  0.18605989    -0.90300
O280        O  0.22082754  0.68279577  0.25138398    -0.93100
C281        C  0.33490427  0.84446590  0.31910369     1.00600
C282        C  0.35851494  0.67688757  0.31848868     1.13500
C283        C  0.36089044  0.82470722  0.18274719     1.04300
O284        O  0.24977110  0.87578667  0.18490477    -0.95300
O285        O  0.19209694  0.81749802  0.15762118    -0.91000
O286        O  0.14311016  0.79359255  0.19875101    -0.84200
C287        C  0.15515956  0.81726167  0.17134231     1.11000
O288        O  0.29470805  0.62867931  0.15836931    -0.97300
Zr289      Zr  0.27134739  0.68341056  0.20088995     1.88900
O290        O  0.15841473  0.69174554  0.18395008    -0.73900
O291        O  0.26663957  0.79275469  0.12043410    -0.53200
O292        O  0.29068857  0.70360322  0.13602706    -0.97900
O293        O  0.31984473  0.63010226  0.22097098    -0.55100
O294        O  0.20873830  0.64483161  0.18896163    -0.74400
C295        C  0.17661610  0.65910877  0.17250617     0.97900
O296        O  0.09918615  0.73482082  0.24023900    -0.63300
O297        O  0.25238541  0.70607429  0.38130964    -0.58100
O298        O  0.13979586  0.71098779  0.29317364    -0.94700
O299        O  0.18445543  0.68136751  0.33557000    -0.93200
O300        O  0.23557924  0.79513470  0.36910814    -0.93500
O301        O  0.17302970  0.85114959  0.30214870    -0.92300
C302        C  0.14796182  0.69176934  0.32448335     1.16700
H303        H  0.30148720  0.76541838  0.33976619     0.32700
H304        H  0.18962872  0.82741179  0.23728248     0.43500
H305        H  0.20603231  0.65742546  0.25453051     0.37100
H306        H  0.32832314  0.74723817  0.18165705     0.33500
H307        H  0.22386168  0.87455563  0.36164220     0.25300
H308        H  0.26520746  0.82065897  0.10963102     0.31300
H309        H  0.26412157  0.71089221  0.12360011     0.37200
H310        H  0.20563644  0.79637063  0.37543015     0.31600
H311        H  0.24969893  0.67804419  0.39154561     0.30500
H312        H  0.23397800  0.61667324  0.33618192     0.32200
H313        H  0.31053129  0.62141426  0.24684088     0.31200
H314        H  0.15263299  0.82955385  0.30793627     0.35200
H315        H  0.08985324  0.76254350  0.24776864     0.27900
H316        H  0.42350454  0.78220752  0.26136518     0.32100
H317        H  0.26920534  0.61629466  0.14797326     0.35000
H318        H  0.28082621  0.71430942  0.38834495     0.27600
H319        H  0.08986874  0.73165264  0.21333418     0.40500
H320        H  0.26908942  0.88671343  0.20433550     0.30500
H321        H  0.24917007  0.89801569  0.33017807     0.38100
H322        H  0.34669961  0.64384104  0.22509698     0.30000
H323        H  0.29592611  0.78430296  0.11686204     0.30100
H324        H  0.41746092  0.74208626  0.23712912     0.30300
Zr325      Zr  0.23254299  0.33566471  0.24664026     2.17500
O326        O  0.23043764  0.40878368  0.25839772    -0.52000
O327        O  0.17618331  0.35975594  0.20473141    -0.75200
O328        O  0.29050639  0.36970474  0.21199690    -0.82000
O329        O  0.15574300  0.31037975  0.32440095    -0.83800
O330        O  0.32513335  0.32608612  0.17203496    -0.79400
O331        O  0.20815949  0.35407139  0.31287977    -0.91000
O332        O  0.19040979  0.31417423  0.15963671    -0.77000
O333        O  0.24104063  0.29468287  0.18994866    -0.86500
O334        O  0.17528201  0.28869328  0.24565358    -0.86200
O335        O  0.29895047  0.30142831  0.25211545    -0.72900
O336        O  0.23865887  0.29379470  0.30301622    -0.85100
Zr337      Zr  0.25961253  0.17140858  0.24985581     2.26400
Zr338      Zr  0.30600317  0.25983583  0.19542214     2.06300
Zr339      Zr  0.18301354  0.24601637  0.30099342     2.10000
Zr340      Zr  0.18484673  0.24797543  0.18987515     1.78800
O341        O  0.18174990  0.24564147  0.37100468    -0.93900
O342        O  0.15753655  0.24077791  0.12486687    -0.41700
O343        O  0.19203868  0.20437879  0.24483986    -0.78300
O344        O  0.24938045  0.21344887  0.19317593    -0.97000
O345        O  0.31493610  0.21909768  0.25193417    -0.90300
O346        O  0.24832208  0.21155869  0.30643227    -0.93100
C347        C  0.16870691  0.34403960  0.17182762     1.00600
C348        C  0.17730470  0.34135944  0.33355427     1.13500
C349        C  0.31817647  0.36154633  0.18588378     1.04300
O350        O  0.30955536  0.26346269  0.12559266    -0.95300
O351        O  0.32931568  0.19737074  0.16471355    -0.91000
O352        O  0.28846759  0.14632523  0.18740467    -0.84200
C353        C  0.31318063  0.16192545  0.16198807     1.11000
O354        O  0.33468890  0.31929351  0.33749925    -0.97300
Zr355      Zr  0.30344607  0.25927356  0.30833567     1.88900
O356        O  0.32172930  0.15148145  0.28842558    -0.73900
O357        O  0.38068602  0.26413496  0.20431972    -0.53200
O358        O  0.37817526  0.25739219  0.29842316    -0.97900
O359        O  0.28954128  0.26714175  0.37696009    -0.55100
O360        O  0.32064846  0.19524941  0.33822819    -0.74400
C361        C  0.33596706  0.16449451  0.32080723     0.97900
O362        O  0.25482621  0.09738006  0.24496783    -0.63300
O363        O  0.10823822  0.23819912  0.29479698    -0.58100
O364        O  0.20368584  0.13614771  0.28450878    -0.94700
O365        O  0.16396203  0.17831086  0.32181879    -0.93200
O366        O  0.11192379  0.24853028  0.20757859    -0.93500
O367        O  0.17523599  0.18609428  0.15204633    -0.92300
C368        C  0.17431685  0.14300779  0.30911601     1.16700
H369        H  0.14880547  0.30289702  0.24608271     0.32700
H370        H  0.24866603  0.19984677  0.16873320     0.43500
H371        H  0.24733072  0.19448802  0.32902218     0.37100
H372        H  0.32153358  0.32035732  0.25385276     0.33500
H373        H  0.12865221  0.25105314  0.12593410     0.25300
H374        H  0.38950707  0.23613369  0.21131457     0.31300
H375        H  0.38457385  0.28234056  0.28360189     0.37200
H376        H  0.10047618  0.22459962  0.19401431     0.31600
H377        H  0.09774703  0.23803930  0.32158381     0.30500
H378        H  0.15243021  0.25097051  0.37806813     0.32200
H379        H  0.27308582  0.24291940  0.38415503     0.31200
H380        H  0.17504854  0.16375097  0.17118064     0.35200
H381        H  0.23908236  0.09220731  0.22110870     0.27900
H382        H  0.23345904  0.42173576  0.23284258     0.32100
H383        H  0.35508780  0.30860760  0.35621078     0.35000
H384        H  0.09808985  0.26441225  0.28417952     0.27600
H385        H  0.28335956  0.08772865  0.23928953     0.40500
H386        H  0.28108775  0.25714029  0.11700527     0.30500
H387        H  0.17259451  0.26074121  0.10878315     0.38100
H388        H  0.26956736  0.29014825  0.37882002     0.30000
H389        H  0.39196777  0.26822771  0.17809746     0.30100
H390        H  0.25683089  0.41419874  0.27175204     0.30300
C391        C  0.63988529  0.84449041  0.63881161     0.79500
N392        N  0.63043969  0.88139475  0.62308756    -0.78800
C393        C  0.59106220  0.88892335  0.61077525     0.82000
N394        N  0.56156391  0.85966930  0.61417240    -0.78700
C395        C  0.57063263  0.82290648  0.62992526     0.82100
N396        N  0.60998584  0.81561173  0.64198991    -0.80500
C397        C  0.42617453  0.62621220  0.61055959     0.79500
N398        N  0.38815756  0.63380402  0.62668615    -0.78800
C399        C  0.38097743  0.67026978  0.64455833     0.82000
N400        N  0.41154551  0.69848906  0.64597375    -0.78700
C401        C  0.44941949  0.69131694  0.63012973     0.82100
N402        N  0.45630785  0.65513936  0.61216259    -0.80500
Zr403      Zr  0.52162818  0.01312567  0.57395618     2.17500
O404        O  0.52290557  0.01248931  0.64406877    -0.52000
O405        O  0.57657105  0.05992353  0.59455198    -0.75200
O406        O  0.55655925  0.95183647  0.59996110    -0.82000
O407        O  0.41922839  0.08296046  0.56865521    -0.83800
O408        O  0.59251868  0.92088942  0.55145921    -0.79400
O409        O  0.46116741  0.04387846  0.60619060    -0.91000
O410        O  0.60043994  0.08524099  0.53826089    -0.77000
O411        O  0.57318695  0.00710740  0.52486595    -0.86500
O412        O  0.51122976  0.07035432  0.53237244    -0.86200
O413        O  0.50847813  0.94878494  0.54216579    -0.72900
O414        O  0.45293156  0.00861314  0.54784213    -0.85100
Zr415      Zr  0.48248301  0.99235344  0.42466589     2.26400
Zr416      Zr  0.56046624  0.94371366  0.49256112     2.06300
Zr417      Zr  0.44339138  0.06470065  0.50446507     2.10000
Zr418      Zr  0.56176095  0.06338131  0.48318583     1.78800
O419        O  0.36797306  0.06754490  0.50592562    -0.93900
O420        O  0.63425320  0.05551383  0.46434122    -0.41700
O421        O  0.49463634  0.05705797  0.45531854    -0.78300
O422        O  0.55166470  0.00054684  0.44979506    -0.97000
O423        O  0.49180340  0.93640963  0.46717449    -0.90300
O424        O  0.43035969  0.00082166  0.47304959    -0.93100
C425        C  0.60188454  0.08160178  0.57487123     1.00600
C426        C  0.42994157  0.06810935  0.60123489     1.13500
C427        C  0.58125268  0.92407554  0.58664150     1.04300
O428        O  0.63570706  0.94297877  0.48653526    -0.95300
O429        O  0.58236024  0.91998753  0.42920786    -0.91000
O430        O  0.53644708  0.95328686  0.39095167    -0.84200
C431        C  0.56881029  0.93074720  0.39617953     1.11000
O432        O  0.41501974  0.92514243  0.57929318    -0.97300
Zr433      Zr  0.44060573  0.94543880  0.51611505     1.88900
O434        O  0.42851020  0.94370421  0.40646014    -0.73900
O435        O  0.55128691  0.87002159  0.49274799    -0.53200
O436        O  0.45116120  0.87260678  0.52647821    -0.97900
O437        O  0.36690587  0.95786082  0.52747877    -0.55100
O438        O  0.40761884  0.91430181  0.46217138    -0.74400
C439        C  0.40593921  0.91888834  0.42572749     0.97900
O440        O  0.48035599  0.00143589  0.35505484    -0.63300
O441        O  0.45297947  0.13837327  0.50736844    -0.58100
O442        O  0.44878822  0.05162899  0.39525079    -0.94700
O443        O  0.42158209  0.09213519  0.44240982    -0.93200
O444        O  0.54977182  0.13682102  0.48329483    -0.93500
O445        O  0.58038913  0.09486726  0.42248434    -0.92300
C446        C  0.42874497  0.08336165  0.40693841     1.16700
H447        H  0.51428300  0.09565077  0.54629995     0.32700
H448        H  0.57263016  0.00075064  0.42996954     0.43500
H449        H  0.40297392  0.00068232  0.46199992     0.37100
H450        H  0.50886805  0.92509936  0.55860773     0.33500
H451        H  0.64678551  0.08252328  0.46916341     0.25300
H452        H  0.57944737  0.85872265  0.48828966     0.31300
H453        H  0.46368066  0.86242597  0.50225267     0.37200
H454        H  0.57777237  0.14882974  0.48520558     0.31600
H455        H  0.42497074  0.15001557  0.50314323     0.30500
H456        H  0.36116295  0.09701875  0.50714346     0.32200
H457        H  0.35400284  0.95846306  0.50174183     0.31200
H458        H  0.55535697  0.09089868  0.40661728     0.35200
H459        H  0.50840340  0.01057098  0.34742272     0.27900
H460        H  0.52136569  0.04145919  0.65206994     0.32100
H461        H  0.39583739  0.90220978  0.57468977     0.35000
H462        H  0.45903713  0.14456564  0.53460811     0.27600
H463        H  0.47774173  0.97369988  0.34407151     0.40500
H464        H  0.64189328  0.96356967  0.46655711     0.30500
H465        H  0.64645361  0.03762138  0.48427295     0.38100
H466        H  0.36529135  0.98645224  0.53657732     0.30000
H467        H  0.54482941  0.86298362  0.51977834     0.30100
H468        H  0.55125235  0.00394276  0.65146003     0.30300
C469        C  0.32124659  0.37092505  0.62801943     0.79500
N470        N  0.29367759  0.35981711  0.60035000    -0.78800
C471        C  0.29816772  0.37278080  0.56361725     0.82000
N472        N  0.32993117  0.39753241  0.55496422    -0.78700
C473        C  0.35836615  0.40883214  0.58131903     0.82100
N474        N  0.35469461  0.39475864  0.61830930    -0.80500
C475        C  0.16838966  0.35877920  0.37205928     0.79500
N476        N  0.13085606  0.37657336  0.37965899    -0.78800
C477        C  0.11906269  0.38441214  0.41666901     0.82000
N478        N  0.14487395  0.37431978  0.44591685    -0.78700
C479        C  0.18242635  0.35678231  0.43904396     0.82100
N480        N  0.19402075  0.34918873  0.40188536    -0.80500
C481        C  0.57057180  0.38305431  0.37473130     0.79500
N482        N  0.54160048  0.35308423  0.37605732    -0.78800
C483        C  0.54220212  0.32253917  0.34986750     0.82000
N484        N  0.57213557  0.32175163  0.32267065    -0.78700
C485        C  0.60188524  0.35047115  0.32096062     0.82100
N486        N  0.60162221  0.38138150  0.34758680    -0.80500
C487        C  0.42016274  0.11552643  0.37858467     0.79500
N488        N  0.44919871  0.14516288  0.37523009    -0.78800
C489        C  0.44248727  0.17781543  0.35240243     0.82000
N490        N  0.40648345  0.18073141  0.33293957    -0.78700
C491        C  0.37698596  0.15167216  0.33534000     0.82100
N492        N  0.38311239  0.11918808  0.35949511    -0.80500
C493        C  0.60051289  0.59134902  0.87656794     0.79500
N494        N  0.59902494  0.56061616  0.85052828    -0.78800
C495        C  0.61676028  0.56469405  0.81568980     0.82000
N496        N  0.63553805  0.59966056  0.80643849    -0.78700
C497        C  0.63756423  0.63073347  0.83175962     0.82100
N498        N  0.62029336  0.62696033  0.86758638    -0.80500
C499        C  0.59227085  0.42330286  0.63497283     0.79500
N500        N  0.58783750  0.44924674  0.66523836    -0.78800
C501        C  0.61190209  0.44526789  0.69664701     0.82000
N502        N  0.64088861  0.41555057  0.69787277    -0.78700
C503        C  0.64575411  0.38854837  0.66897671     0.82100
N504        N  0.62122634  0.39214033  0.63683843    -0.80500
Zr505      Zr  0.48029699  0.49439114  0.57073646     2.17500
O506        O  0.47568940  0.49302787  0.64055742    -0.52000
O507        O  0.42084959  0.44995113  0.58684844    -0.75200
O508        O  0.44971396  0.55823424  0.59783349    -0.82000
O509        O  0.57839391  0.41868947  0.56731936    -0.83800
O510        O  0.42920277  0.59975292  0.54883771    -0.79400
O511        O  0.53658354  0.45820581  0.60513939    -0.91000
O512        O  0.39592935  0.43161192  0.52876298    -0.77000
O513        O  0.43271763  0.50908573  0.52005816    -0.86500
O514        O  0.48577746  0.43814660  0.52707669    -0.86200
O515        O  0.50380767  0.55706177  0.54124372    -0.72900
O516        O  0.55023580  0.49174493  0.54672874    -0.85100
Zr517      Zr  0.53132472  0.51456556  0.42269496     2.26400
Zr518      Zr  0.45608057  0.57075818  0.48981002     2.06300
Zr519      Zr  0.55562423  0.43621164  0.50229202     2.10000
Zr520      Zr  0.43906991  0.45360339  0.47641907     1.78800
O521        O  0.63044446  0.42601589  0.50011808    -0.93900
O522        O  0.36948199  0.47532891  0.45781769    -0.41700
O523        O  0.50826810  0.45202362  0.45184136    -0.78300
O524        O  0.46021753  0.51493267  0.44516116    -0.97000
O525        O  0.52628565  0.56964732  0.46686756    -0.90300
O526        O  0.57915482  0.49831289  0.47276184    -0.93100
C527        C  0.39428748  0.43173292  0.56551668     1.00600
C528        C  0.56714934  0.43284413  0.60025372     1.13500
C529        C  0.43348856  0.59151511  0.58457003     1.04300
O530        O  0.38157388  0.57965629  0.48192342    -0.95300
O531        O  0.44230833  0.59842269  0.42608261    -0.91000
O532        O  0.48544319  0.56109559  0.38778172    -0.84200
C533        C  0.45650807  0.58779812  0.39303117     1.11000
O534        O  0.59436238  0.57582621  0.58087817    -0.97300
Zr535      Zr  0.57293629  0.55326001  0.51721234     1.88900
O536        O  0.58934355  0.56081125  0.40717230    -0.73900
O537        O  0.47304065  0.64306152  0.48965451    -0.53200
O538        O  0.57056253  0.62724792  0.52274556    -0.97900
O539        O  0.64257797  0.53000435  0.53363940    -0.55100
O540        O  0.61301422  0.58070291  0.46534465    -0.74400
C541        C  0.61439497  0.58085580  0.42862147     0.97900
O542        O  0.53485977  0.50406581  0.35338175    -0.63300
O543        O  0.54221503  0.36351968  0.50977378    -0.58100
O544        O  0.55910299  0.45220965  0.39244244    -0.94700
O545        O  0.56719325  0.40442078  0.43939245    -0.93200
O546        O  0.44095314  0.37944958  0.47290199    -0.93500
O547        O  0.41709475  0.42627812  0.41477341    -0.92300
C548        C  0.56725019  0.41571289  0.40392969     1.16700
H549        H  0.47885230  0.41280516  0.53961856     0.32700
H550        H  0.44093617  0.51817657  0.42440248     0.43500
H551        H  0.60695721  0.49544244  0.46280899     0.37100
H552        H  0.50548883  0.57962950  0.55897457     0.33500
H553        H  0.35639980  0.48537689  0.48185028     0.25300
H554        H  0.44588094  0.65730456  0.49056549     0.31300
H555        H  0.59957471  0.63628157  0.51937073     0.37200
H556        H  0.47029384  0.37260503  0.46727254     0.31600
H557        H  0.56992272  0.35041625  0.50830795     0.30500
H558        H  0.63435970  0.39847809  0.48892374     0.32200
H559        H  0.65755536  0.52766362  0.50883256     0.31200
H560        H  0.44267959  0.42557755  0.39894023     0.35200
H561        H  0.50598211  0.49869343  0.34535960     0.27900
H562        H  0.44599904  0.49730536  0.64683520     0.32100
H563        H  0.61953001  0.59241572  0.57674075     0.35000
H564        H  0.53346334  0.35994522  0.53686337     0.27600
H565        H  0.54160446  0.53106409  0.34234849     0.40500
H566        H  0.36896313  0.56462337  0.50365092     0.30500
H567        H  0.37321249  0.50013227  0.44203292     0.38100
H568        H  0.63893195  0.50147481  0.54227036     0.30000
H569        H  0.48549137  0.64828331  0.51512829     0.30100
H570        H  0.48944667  0.51843040  0.64884205     0.30300
C571        C  0.31740679  0.14320850  0.12364621     0.79500
N572        N  0.35071134  0.11899012  0.11472578    -0.78800
C573        C  0.35836059  0.10972499  0.07717213     0.82000
N574        N  0.33388016  0.12525162  0.04934158    -0.78700
C575        C  0.30157534  0.14969742  0.05723656     0.82100
N576        N  0.29298444  0.15848169  0.09475738    -0.80500
C577        C  0.17383641  0.14114454  0.86393030     0.79500
N578        N  0.14066066  0.11662636  0.87300380    -0.78800
C579        C  0.13437326  0.10606334  0.91072530     0.82000
N580        N  0.15977739  0.12122247  0.93803049    -0.78700
C581        C  0.19130249  0.14608359  0.92995335     0.82100
N582        N  0.19874600  0.15554976  0.89259511    -0.80500
C583        C  0.09601720  0.42938142  0.85055319     0.79500
N584        N  0.09519683  0.45744216  0.82167401    -0.78800
C585        C  0.12339537  0.45557635  0.79277163     0.82000
N586        N  0.15230789  0.42571930  0.79273269    -0.78700
C587        C  0.15356026  0.39695275  0.82028347     0.82100
N588        N  0.12523999  0.39858811  0.84978122    -0.80500
C589        C  0.11888221  0.59504096  0.60951620     0.79500
N590        N  0.13838615  0.63140179  0.61621996    -0.78800
C591        C  0.15946182  0.63602983  0.65012028     0.82000
N592        N  0.15998607  0.60547035  0.67623545    -0.78700
C593        C  0.14048488  0.57018563  0.66958136     0.82100
N594        N  0.11980921  0.56527906  0.63649313    -0.80500
Zr595      Zr  0.27188779  0.33585892  0.75632142     2.17500
O596        O  0.27613274  0.40984967  0.75023725    -0.52000
O597        O  0.32848526  0.35347767  0.80146627    -0.75200
O598        O  0.21372870  0.36985554  0.79067227    -0.82000
O599        O  0.33356961  0.31167502  0.66316766    -0.83800
O600        O  0.17195186  0.32688777  0.82430431    -0.79400
O601        O  0.29595991  0.36188756  0.69262639    -0.91000
O602        O  0.31148983  0.30598974  0.84362083    -0.77000
O603        O  0.25914545  0.29160166  0.80977185    -0.86500
O604        O  0.32768397  0.28648084  0.75487405    -0.86200
O605        O  0.20452470  0.30493253  0.74641089    -0.72900
O606        O  0.26526892  0.29752613  0.69784384    -0.85100
Zr607      Zr  0.23988744  0.17319425  0.74210127     2.26400
Zr608      Zr  0.19305688  0.26041996  0.80028759     2.06300
Zr609      Zr  0.31958620  0.24804604  0.69667356     2.10000
Zr610      Zr  0.31401505  0.24260203  0.80808593     1.78800
O611        O  0.33423580  0.24422327  0.62799902    -0.93900
O612        O  0.32907515  0.22932782  0.87562928    -0.41700
O613        O  0.30773594  0.20331226  0.75015530    -0.78300
O614        O  0.24837336  0.21123119  0.80144358    -0.97000
O615        O  0.18580697  0.22315428  0.74142736    -0.90300
O616        O  0.25343608  0.21617834  0.68792116    -0.93100
C617        C  0.33440239  0.33558022  0.83381020     1.00600
C618        C  0.31869343  0.34805975  0.66461121     1.13500
C619        C  0.18239588  0.36249857  0.81296615     1.04300
O620        O  0.18830822  0.25927061  0.87013273    -0.95300
O621        O  0.16365631  0.19689756  0.82369003    -0.91000
O622        O  0.20564005  0.14603095  0.80139567    -0.84200
C623        C  0.17912368  0.16085069  0.82590234     1.11000
O624        O  0.17385969  0.32978171  0.66025154    -0.97300
Zr625      Zr  0.19997555  0.26628001  0.68792044     1.88900
O626        O  0.18247273  0.15343131  0.69884399    -0.73900
O627        O  0.11914941  0.26796038  0.78768993    -0.53200
O628        O  0.12477703  0.27164623  0.69320048    -0.97900
O629        O  0.21960166  0.27582741  0.62069906    -0.55100
O630        O  0.17506525  0.20562654  0.65665736    -0.74400
C631        C  0.16582769  0.17012327  0.66907265     0.97900
O632        O  0.24555490  0.09906218  0.74577624    -0.63300
O633        O  0.39336633  0.24730048  0.71144658    -0.58100
O634        O  0.29694614  0.13840889  0.70763667    -0.94700
O635        O  0.33827555  0.18077613  0.67289567    -0.93200
O636        O  0.38826382  0.24326394  0.79585442    -0.93500
O637        O  0.32751670  0.17646674  0.83759438    -0.92300
C638        C  0.32714224  0.14528695  0.68397589     1.16700
H639        H  0.35424347  0.29926421  0.75590020     0.32700
H640        H  0.24756944  0.19557254  0.82478519     0.43500
H641        H  0.25365446  0.20058453  0.66427946     0.37100
H642        H  0.18276548  0.32510511  0.74471120     0.33500
H643        H  0.35460624  0.24468596  0.88138091     0.25300
H644        H  0.10643265  0.27273232  0.81326923     0.31300
H645        H  0.11429959  0.26432515  0.66742458     0.37200
H646        H  0.39847232  0.21716142  0.80667341     0.31600
H647        H  0.40109804  0.21804395  0.71252355     0.30500
H648        H  0.36483104  0.24240372  0.62597835     0.32200
H649        H  0.22245173  0.24801728  0.60987202     0.31200
H650        H  0.32953272  0.15718887  0.81573795     0.35200
H651        H  0.25852294  0.09324906  0.77094433     0.27900
H652        H  0.27610006  0.42039685  0.77691011     0.32100
H653        H  0.15578334  0.32173797  0.63863803     0.35000
H654        H  0.40699818  0.25755116  0.68784162     0.27600
H655        H  0.21674191  0.08915802  0.74826400     0.40500
H656        H  0.21468550  0.24656180  0.87854354     0.30500
H657        H  0.30688756  0.24347819  0.89033297     0.38100
H658        H  0.24832477  0.28620780  0.62150566     0.30000
H659        H  0.11630195  0.29441120  0.77420086     0.30100
H660        H  0.24908069  0.41859234  0.73955827     0.30300
Zr661      Zr  0.52253157  0.98337899  0.92919619     2.17500
O662        O  0.52544239  0.97575122  0.85947091    -0.52000
O663        O  0.57818528  0.93336604  0.91641660    -0.75200
O664        O  0.55451123  0.04311186  0.89736946    -0.82000
O665        O  0.42865608  0.90637821  0.93875823    -0.83800
O666        O  0.58469095  0.08285140  0.94294107    -0.79400
O667        O  0.46538557  0.94714756  0.89843930    -0.91000
O668        O  0.59990362  0.91504670  0.97578759    -0.77000
O669        O  0.57115559  0.99857279  0.97871686    -0.86500
O670        O  0.51354970  0.93161224  0.97689943    -0.86200
O671        O  0.50346955  0.05016818  0.95355279    -0.72900
O672        O  0.45204850  0.98746180  0.95175699    -0.85100
Zr673      Zr  0.47345637  0.01782125  0.07394211     2.26400
Zr674      Zr  0.55216053  0.06446419  0.00381389     2.06300
Zr675      Zr  0.44358313  0.93663001  0.00045624     2.10000
Zr676      Zr  0.56131599  0.94749566  0.02636550     1.78800
O677        O  0.36953254  0.93026087  0.98880187    -0.93900
O678        O  0.63313141  0.96521067  0.03944930    -0.41700
O679        O  0.49199834  0.95138699  0.05018408    -0.78300
O680        O  0.54472642  0.01300467  0.05252526    -0.97000
O681        O  0.48182740  0.06944425  0.02633621    -0.90300
O682        O  0.42469194  0.00248656  0.02472900    -0.93100
C683        C  0.60204834  0.91331184  0.93911427     1.00600
C684        C  0.43729646  0.92028638  0.90537868     1.13500
C685        C  0.57499310  0.07486254  0.90802254     1.04300
O686        O  0.62629562  0.06756259  0.01628537    -0.95300
O687        O  0.56386247  0.09925284  0.06484203    -0.91000
O688        O  0.52003024  0.06574776  0.10500910    -0.84200
C689        C  0.54934227  0.09124568  0.09833877     1.11000
O690        O  0.40981059  0.06761540  0.91214057    -0.97300
Zr691      Zr  0.43437603  0.05290701  0.97674460     1.88900
O692        O  0.41298461  0.06088476  0.08614396    -0.73900
O693        O  0.54203215  0.13749515  0.99476788    -0.53200
O694        O  0.44108324  0.12428202  0.95835888    -0.97900
O695        O  0.36155674  0.03768822  0.96535838    -0.55100
O696        O  0.39922234  0.08752757  0.02752229    -0.74400
C697        C  0.39294612  0.08466083  0.06364343     0.97900
O698        O  0.46573385  0.01684406  0.14376780    -0.63300
O699        O  0.45584365  0.86449803  0.01322911    -0.58100
O700        O  0.45059646  0.95404525  0.10382126    -0.94700
O701        O  0.40847202  0.92349495  0.06104722    -0.93200
O702        O  0.55758886  0.87465441  0.03923029    -0.93500
O703        O  0.58094203  0.92826433  0.09141129    -0.92300
C704        C  0.42537221  0.92564303  0.09410954     1.16700
H705        H  0.51863096  0.90490044  0.96635922     0.32700
H706        H  0.56412170  0.01690286  0.07305740     0.43500
H707        H  0.39674054  0.00236858  0.03443682     0.37100
H708        H  0.50287660  0.07158335  0.93466740     0.33500
H709        H  0.64800476  0.93870626  0.04057565     0.25300
H710        H  0.57017125  0.14834972  0.99006914     0.31300
H711        H  0.44830695  0.13868041  0.98240588     0.37200
H712        H  0.58686885  0.86566802  0.04135050     0.31600
H713        H  0.42783071  0.85240385  0.01450390     0.30500
H714        H  0.36340793  0.90116227  0.99367252     0.32200
H715        H  0.34778982  0.03940832  0.99080069     0.31200
H716        H  0.55457981  0.92044900  0.10402276     0.35200
H717        H  0.49372722  0.01108865  0.15397845     0.27900
H718        H  0.55477185  0.98008921  0.85212599     0.32100
H719        H  0.42350886  0.04677732  0.89573353     0.35000
H720        H  0.46811080  0.85338587  0.98925994     0.27600
H721        H  0.45973766  0.04539379  0.15141151     0.40500
H722        H  0.62996200  0.05417821  0.04155655     0.30500
H723        H  0.64327643  0.97799009  0.01544209     0.38100
H724        H  0.36125260  0.00829840  0.95884506     0.30000
H725        H  0.52794077  0.13981682  0.96967044     0.30100
H726        H  0.51029371  0.99965420  0.84904627     0.30300
C727        C  0.87135690  0.35782278  0.33113390     0.79500
N728        N  0.88495082  0.37027252  0.36658443    -0.78800
C729        C  0.90778942  0.40536855  0.36898367     0.82000
N730        N  0.91483022  0.42782684  0.33690896    -0.78700
C731        C  0.90085809  0.41582520  0.30235703     0.82100
N732        N  0.87889509  0.38114251  0.29981028    -0.80500
C733        C  0.86577472  0.60839726  0.17315608     0.79500
N734        N  0.88898762  0.60701551  0.14017119    -0.78800
C735        C  0.91275977  0.57311569  0.13293973     0.82000
N736        N  0.91257653  0.54154174  0.15798532    -0.78700
C737        C  0.88840772  0.54231247  0.18960237     0.82100
N738        N  0.86560891  0.57590730  0.19739239    -0.80500
C739        C  0.61688164  0.14617542  0.16874758     0.79500
N740        N  0.61667895  0.11776344  0.19695364    -0.78800
C741        C  0.59457520  0.08325476  0.19337974     0.82000
N742        N  0.57149858  0.07763066  0.16190381    -0.78700
C743        C  0.57116982  0.10507957  0.13294650     0.82100
N744        N  0.59523301  0.13937449  0.13544781    -0.80500
C745        C  0.64007112  0.88948668  0.31930642     0.79500
N746        N  0.63810830  0.92188757  0.29510987    -0.78800
C747        C  0.61594519  0.95562197  0.30408313     0.82000
N748        N  0.59390750  0.95643030  0.33680559    -0.78700
C749        C  0.59452148  0.92465615  0.36157034     0.82100
N750        N  0.61838747  0.89072663  0.35345430    -0.80500
C751        C  0.11275201  0.68586858  0.35067499     0.79500
N752        N  0.08383660  0.71612935  0.35200932    -0.78800
C753        C  0.05160437  0.71431039  0.37678681     0.82000
N754        N  0.04804585  0.68138973  0.40001392    -0.78700
C755        C  0.07599999  0.65035807  0.39883149     0.82100
N756        N  0.10892436  0.65250027  0.37403676    -0.80500
C757        C  0.85318584  0.85485696  0.35811724     0.79500
N758        N  0.88278775  0.82558201  0.36208348    -0.78800
C759        C  0.91982933  0.83426411  0.37787166     0.82000
N760        N  0.92751496  0.87268584  0.38976170    -0.78700
C761        C  0.89843309  0.90252750  0.38704303     0.82100
N762        N  0.86072537  0.89386425  0.37083018    -0.80500
C763        C  0.87863926  0.89276102  0.08273441     0.79500
N764        N  0.87899865  0.86777634  0.11445482    -0.78800
C765        C  0.85353029  0.83422104  0.11484441     0.82000
N766        N  0.82792497  0.82736590  0.08499420    -0.78700
C767        C  0.82686071  0.85259039  0.05488345     0.82100
N768        N  0.85223202  0.88482956  0.05368378    -0.80500
C769        C  0.67138847  0.84219378  0.88329228     0.79500
N770        N  0.70236680  0.83882554  0.90905216    -0.78800
C771        C  0.70136291  0.85961708  0.94199576     0.82000
N772        N  0.66847770  0.88346473  0.95014076    -0.78700
C773        C  0.63691311  0.88808287  0.92495397     0.82100
N774        N  0.63817315  0.86763294  0.89049458    -0.80500
Zr775      Zr  0.73597521  0.77615085  0.31698564     2.17500
O776        O  0.72858008  0.77894664  0.38674978    -0.52000
O777        O  0.68257610  0.82910991  0.32801673    -0.75200
O778        O  0.79231936  0.81629770  0.34657765    -0.82000
O779        O  0.67219976  0.67124805  0.30943095    -0.83800
O780        O  0.81948378  0.85420415  0.29857643    -0.79400
O781        O  0.70511265  0.71639633  0.34832994    -0.91000
O782        O  0.66705526  0.85169546  0.26820199    -0.77000
O783        O  0.74747094  0.82344370  0.26599169    -0.86500
O784        O  0.68452476  0.76138364  0.26970480    -0.86200
O785        O  0.80588402  0.76207902  0.29447682    -0.72900
O786        O  0.74717147  0.70745092  0.29490605    -0.85100
Zr787      Zr  0.77703381  0.72702321  0.17304536     2.26400
Zr788      Zr  0.81629165  0.80933838  0.24286635     2.06300
Zr789      Zr  0.69612465  0.69284093  0.24679999     2.10000
Zr790      Zr  0.69668715  0.80816130  0.21897840     1.78800
O791        O  0.69724745  0.61869672  0.25124408    -0.93900
O792        O  0.70618653  0.87665982  0.19349004    -0.41700
O793        O  0.70812129  0.74028689  0.19637065    -0.78300
O794        O  0.76509549  0.79682085  0.19406309    -0.97000
O795        O  0.82837711  0.74089411  0.22032031    -0.90300
O796        O  0.76473487  0.67921232  0.22326399    -0.93100
C797        C  0.66422656  0.85385669  0.30493818     1.00600
C798        C  0.68392536  0.68367047  0.34243176     1.13500
C799        C  0.81761297  0.84351965  0.33388332     1.04300
O800        O  0.83213693  0.87987542  0.22706548    -0.95300
O801        O  0.84934661  0.82557097  0.18232838    -0.91000
O802        O  0.82163612  0.77799778  0.14261182    -0.84200
C803        C  0.84330653  0.81021397  0.14910118     1.11000
O804        O  0.84740262  0.67728616  0.33196506    -0.97300
Zr805      Zr  0.81529986  0.69408378  0.27089899     1.88900
O806        O  0.82492131  0.66903586  0.16345876    -0.73900
O807        O  0.88745716  0.79564274  0.26239433    -0.53200
O808        O  0.88956325  0.70691426  0.27515576    -0.97900
O809        O  0.79751762  0.62763668  0.29757580    -0.55100
O810        O  0.84395713  0.64919882  0.22328150    -0.74400
C811        C  0.84410687  0.64518747  0.18677647     0.97900
O812        O  0.78039551  0.71715584  0.10356553    -0.63300
O813        O  0.62100944  0.70082825  0.24566286    -0.58100
O814        O  0.71441195  0.69999198  0.14103422    -0.94700
O815        O  0.67483798  0.66560135  0.18428289    -0.93200
O816        O  0.62256091  0.79648564  0.21343201    -0.93500
O817        O  0.67019601  0.81726745  0.15411272    -0.92300
C818        C  0.68280032  0.67777481  0.14992725     1.16700
H819        H  0.65688735  0.76458132  0.28037513     0.32700
H820        H  0.76742596  0.81617595  0.17322086     0.43500
H821        H  0.76605197  0.65132160  0.21422467     0.37100
H822        H  0.82710372  0.76499498  0.31395411     0.33500
H823        H  0.67829887  0.88944211  0.19478598     0.25300
H824        H  0.90177566  0.78672759  0.23856534     0.31300
H825        H  0.90322138  0.68405802  0.26132646     0.37200
H826        H  0.61013165  0.82418428  0.21313348     0.31600
H827        H  0.61428247  0.70745033  0.21864195     0.30500
H828        H  0.66778402  0.61066183  0.24950902     0.32200
H829        H  0.78534714  0.61235444  0.27588420     0.31200
H830        H  0.66880538  0.78933413  0.14336163     0.35200
H831        H  0.77174845  0.74350108  0.09220498     0.27900
H832        H  0.72942957  0.80826194  0.39354947     0.32100
H833        H  0.86661141  0.65422845  0.32666204     0.35000
H834        H  0.61021099  0.67293352  0.24952376     0.27600
H835        H  0.81026149  0.71463011  0.09723155     0.40500
H836        H  0.80608793  0.89093856  0.21615917     0.30500
H837        H  0.72234280  0.89101485  0.21341055     0.38100
H838        H  0.77388271  0.63292835  0.31519342     0.30000
H839        H  0.89910794  0.82286430  0.26794768     0.30100
H840        H  0.75474664  0.76736594  0.39694518     0.30300
C841        C  0.43595520  0.60230375  0.35780750     0.79500
N842        N  0.43971058  0.57766405  0.32658136    -0.78800
C843        C  0.41822637  0.58528464  0.29425602     0.82000
N844        N  0.39289788  0.61815837  0.29294363    -0.78700
C845        C  0.38860617  0.64348055  0.32338798     0.82100
N846        N  0.40924747  0.63507923  0.35681313    -0.80500
C847        C  0.34669697  0.39426928  0.17405782     0.79500
N848        N  0.36709646  0.39423883  0.13914578    -0.78800
C849        C  0.39642354  0.42334202  0.13191965     0.82000
N850        N  0.40445869  0.45144296  0.15923542    -0.78700
C851        C  0.38402193  0.45203854  0.19306500     0.82100
N852        N  0.35498989  0.42360261  0.20036741    -0.80500
Zr853      Zr  0.48225944  0.42770567  0.01645412     2.17500
O854        O  0.47314183  0.35394967  0.01808080    -0.52000
O855        O  0.44091859  0.41480616  0.07600673    -0.75200
O856        O  0.54497078  0.39395078  0.04101644    -0.82000
O857        O  0.41210235  0.43906353  0.92421286    -0.83800
O858        O  0.57936375  0.44096766  0.07671533    -0.79400
O859        O  0.44760524  0.39411479  0.96178580    -0.91000
O860        O  0.39895363  0.46979547  0.08260266    -0.77000
O861        O  0.49325250  0.47756051  0.06527858    -0.86500
O862        O  0.42689850  0.47582738  0.00951483    -0.86200
O863        O  0.54888198  0.45848380  0.00160658    -0.72900
O864        O  0.48811110  0.45746071  0.95332107    -0.85100
Zr865      Zr  0.50953164  0.58686585  0.98405868     2.26400
Zr866      Zr  0.55937886  0.50780974  0.05163658     2.06300
Zr867      Zr  0.43315225  0.50608854  0.94702294     2.10000
Zr868      Zr  0.43840625  0.52592366  0.05798996     1.78800
O869        O  0.42972376  0.50320514  0.87718590    -0.93900
O870        O  0.45354314  0.53101801  0.12641681    -0.41700
O871        O  0.44327842  0.55633714  0.99605524    -0.78300
O872        O  0.50417457  0.55725570  0.04727757    -0.97000
O873        O  0.56476559  0.53851059  0.98941502    -0.90300
O874        O  0.49824839  0.53803840  0.93398659    -0.93100
C875        C  0.41158169  0.43469353  0.09325724     1.00600
C876        C  0.42396093  0.40277534  0.93295767     1.13500
C877        C  0.57505818  0.40496595  0.06279574     1.04300
O878        O  0.56349341  0.51536603  0.12114172    -0.95300
O879        O  0.59167299  0.57287030  0.06826676    -0.91000
O880        O  0.55727345  0.61852703  0.03063724    -0.84200
C881        C  0.58352757  0.60949799  0.05736056     1.11000
O882        O  0.56842495  0.42513692  0.90880792    -0.97300
Zr883      Zr  0.55291864  0.48980604  0.94018631     1.88900
O884        O  0.55179285  0.60265497  0.92738550    -0.73900
O885        O  0.63366870  0.49968053  0.04068968    -0.53200
O886        O  0.62468816  0.46616809  0.94108170    -0.97900
O887        O  0.53827219  0.49498920  0.87165793    -0.55100
O888        O  0.59525267  0.54919612  0.92971097    -0.74400
C889        C  0.58280535  0.58228411  0.91430353     0.97900
O890        O  0.50236841  0.66072297  0.98603691    -0.63300
O891        O  0.35848970  0.50775487  0.95771584    -0.58100
O892        O  0.44490729  0.61806971  0.95998930    -0.94700
O893        O  0.41036774  0.57223740  0.92308779    -0.93200
O894        O  0.36574405  0.54499076  0.05114995    -0.93500
O895        O  0.42199433  0.59221213  0.08574174    -0.92300
C896        C  0.41553493  0.60816511  0.93675869     1.16700
H897        H  0.40027125  0.46271477  0.01192406     0.32700
H898        H  0.50712270  0.57766856  0.06710436     0.43500
H899        H  0.49772599  0.55068376  0.90898574     0.37100
H900        H  0.57215689  0.43991172  0.99949212     0.33500
H901        H  0.42611168  0.53147685  0.13929252     0.25300
H902        H  0.64509895  0.49185410  0.06601640     0.31300
H903        H  0.63704653  0.47670166  0.91698033     0.37200
H904        H  0.35350021  0.54112889  0.07703406     0.31600
H905        H  0.35310493  0.53417207  0.97068979     0.30500
H906        H  0.39972056  0.50270554  0.87133635     0.32200
H907        H  0.51649173  0.47447564  0.86691881     0.31200
H908        H  0.43658508  0.61194644  0.06901952     0.35200
H909        H  0.49620491  0.66712658  0.01330163     0.27900
H910        H  0.47737701  0.34601008  0.04523805     0.32100
H911        H  0.55069527  0.40511000  0.92225984     0.35000
H912        H  0.34649273  0.51114991  0.93176775     0.27600
H913        H  0.53062785  0.67122237  0.98128040     0.40500
H914        H  0.54478732  0.53857249  0.12727409     0.30500
H915        H  0.46587827  0.50436011  0.13351658     0.38100
H916        H  0.56323772  0.48393491  0.85854589     0.30000
H917        H  0.63653545  0.47476539  0.02476825     0.30100
H918        H  0.49756296  0.34263535  0.00428941     0.30300
Zr919      Zr  0.02474857  0.98712390  0.56772584     2.17500
O920        O  0.03241918  0.98948697  0.63745046    -0.52000
O921        O  0.07952540  0.93582385  0.57858389    -0.75200
O922        O  0.96920671  0.95154775  0.60146271    -0.82000
O923        O  0.09674405  0.07909513  0.55020400    -0.83800
O924        O  0.92011162  0.92347819  0.56317621    -0.79400
O925        O  0.05858317  0.04691895  0.59605655    -0.91000
O926        O  0.06856894  0.89412103  0.52837266    -0.77000
O927        O  0.00288216  0.93562000  0.52385059    -0.86500
O928        O  0.07540013  0.98796964  0.51727650    -0.86200
O929        O  0.95599538  0.00615338  0.54626829    -0.72900
O930        O  0.02059370  0.05374575  0.53933159    -0.85100
Zr931      Zr  0.97934578  0.01985153  0.42202160     2.26400
Zr932      Zr  0.93499309  0.95450917  0.50151890     2.06300
Zr933      Zr  0.07018597  0.05409691  0.48853942     2.10000
Zr934      Zr  0.05285495  0.93703130  0.47351420     1.78800
O935        O  0.08504248  0.12682023  0.48748055    -0.93900
O936        O  0.03800900  0.86737843  0.45351072    -0.41700
O937        O  0.04850402  0.00276319  0.44359074    -0.78300
O938        O  0.98525991  0.95273244  0.45069029    -0.97000
O939        O  0.93025980  0.02093201  0.47321528    -0.90300
O940        O  0.00245778  0.07179733  0.46516083    -0.93100
C941        C  0.08797765  0.90359698  0.55903744     1.00600
C942        C  0.08392389  0.07484810  0.58505540     1.13500
C943        C  0.93599806  0.93084700  0.59604466     1.04300
O944        O  0.92089947  0.88212478  0.49365735    -0.95300
O945        O  0.89532314  0.94189155  0.44309289    -0.91000
O946        O  0.93686887  0.96381731  0.39467748    -0.84200
C947        C  0.90805752  0.94048546  0.40815837     1.11000
O948        O  0.93298892  0.08988868  0.58159035    -0.97300
Zr949      Zr  0.95371453  0.07206602  0.51640286     1.88900
O950        O  0.92563231  0.07232720  0.41254578    -0.73900
O951        O  0.86450332  0.97451452  0.51879952    -0.53200
O952        O  0.87898363  0.07607298  0.52497966    -0.97900
O953        O  0.97762502  0.14033957  0.53262581    -0.55100
O954        O  0.93106330  0.11447616  0.46369050    -0.74400
C955        C  0.91501773  0.10428257  0.43158185     0.97900
O956        O  0.97161356  0.02655684  0.35262742    -0.63300
O957        O  0.14231715  0.03342725  0.47967252    -0.58100
O958        O  0.03883975  0.04857551  0.38794462    -0.94700
O959        O  0.08652716  0.08032003  0.42532170    -0.93200
O960        O  0.12782533  0.93768096  0.46577763    -0.93500
O961        O  0.07043668  0.91556451  0.40834658    -0.92300
C962        C  0.07199511  0.06969670  0.39272828     1.16700
H963        H  0.10321608  0.98298982  0.52656393     0.32700
H964        H  0.98063478  0.92979475  0.43389712     0.43500
H965        H  0.00402680  0.09788549  0.45228829     0.37100
H966        H  0.93669400  0.00759921  0.56757197     0.33500
H967        H  0.06287074  0.85131146  0.46078847     0.25300
H968        H  0.84973102  0.94848871  0.52282580     0.31300
H969        H  0.87219445  0.10556391  0.52449984     0.37200
H970        H  0.13513826  0.90931205  0.45853229     0.31600
H971        H  0.14421162  0.02450568  0.45252148     0.30500
H972        H  0.11567430  0.12847841  0.48664635     0.32200
H973        H  0.99658147  0.14785462  0.51136679     0.31200
H974        H  0.05069950  0.93059347  0.39175179     0.35200
H975        H  0.94223752  0.02047118  0.34707041     0.27900
H976        H  0.03170506  0.96077807  0.64623935     0.32100
H977        H  0.91611517  0.11509077  0.57917016     0.35000
H978        H  0.15805768  0.05922241  0.48051746     0.27600
H979        H  0.97386783  0.05613972  0.34731176     0.40500
H980        H  0.93962137  0.87309958  0.47265105     0.30500
H981        H  0.01606745  0.85807135  0.47136883     0.38100
H982        H  0.99607562  0.13647957  0.55499901     0.30000
H983        H  0.86657864  0.98665041  0.54477683     0.30100
H984        H  0.00641062  0.00193939  0.64735869     0.30300
C985        C  0.37198629  0.89654649  0.40751584     0.79500
N986        N  0.33876530  0.88960886  0.43029442    -0.78800
C987        C  0.30549936  0.86979162  0.41708198     0.82000
N988        N  0.30494606  0.85629631  0.38067695    -0.78700
C989        C  0.33776193  0.86269308  0.35715774     0.82100
N990        N  0.37200412  0.88285816  0.37034567    -0.80500
C991        C  0.17552245  0.84315007  0.60281442     0.79500
N992        N  0.19866983  0.83743222  0.57039301    -0.78800
C993        C  0.18601972  0.85276834  0.53632983     0.82000
N994        N  0.14989600  0.87338312  0.53456981    -0.78700
C995        C  0.12610499  0.87971197  0.56605018     0.82100
N996        N  0.13911612  0.86525487  0.60099229    -0.80500
C997        C  0.41271047  0.36879045  0.90675880     0.79500
N998        N  0.37983823  0.37141660  0.88176115    -0.78800
C999        C  0.37301207  0.34041476  0.85616561     0.82000
N1000       N  0.39885242  0.30778053  0.85596098    -0.78700
C1001       C  0.43089937  0.30459658  0.88065067     0.82100
N1002       N  0.43773178  0.33508345  0.90613034    -0.80500
C1003       C  0.61442873  0.15692783  0.84337185     0.79500
N1004       N  0.57995933  0.18070728  0.84207775    -0.78800
C1005       C  0.54465604  0.16992943  0.85990839     0.82000
N1006       N  0.54384932  0.13454057  0.87994749    -0.78700
C1007       C  0.57763876  0.10939306  0.88107298     0.82100
N1008       N  0.61380695  0.12101255  0.86346272    -0.80500
C1009       C  0.12787292  0.15350004  0.65160696     0.79500
N1010       N  0.12572659  0.11829784  0.63027441    -0.78800
C1011       C  0.08945623  0.10969700  0.61127900     0.82000
N1012       N  0.05730490  0.13668163  0.61252065    -0.78700
C1013       C  0.06012628  0.17163657  0.63275968     0.82100
N1014       N  0.09537202  0.17978622  0.65167828    -0.80500
C1015       C  0.92206126  0.36807988  0.59046838     0.79500
N1016       N  0.95085128  0.33775401  0.59294461    -0.78800
C1017       C  0.94610630  0.30676724  0.61798954     0.82000
N1018       N  0.91174027  0.30587339  0.64025787    -0.78700
C1019       C  0.88206703  0.33523045  0.63873125     0.82100
N1020       N  0.88701596  0.36704743  0.61344311    -0.80500
C1021       C  0.66360567  0.34569386  0.10134333     0.79500
N1022       N  0.62567914  0.36412788  0.09961824    -0.78800
C1023       C  0.61128861  0.37796072  0.06514347     0.82000
N1024       N  0.63535390  0.37442135  0.03296109    -0.78700
C1025       C  0.67326999  0.35637250  0.03451224     0.82100
N1026       N  0.68697355  0.34244689  0.06895023    -0.80500
C1027       C  0.86120577  0.41213668  0.90048409     0.79500
N1028       N  0.82964692  0.40441485  0.92522696    -0.78800
C1029       C  0.79548579  0.38421823  0.91434136     0.82000
N1030       N  0.79244281  0.37189985  0.87724895    -0.78700
C1031       C  0.82371542  0.37901000  0.85155858     0.82100
N1032       N  0.85892755  0.39846506  0.86341930    -0.80500
Zr1033     Zr  0.73462030  0.17351288  0.76324844     2.17500
O1034       O  0.73276861  0.09914061  0.76150564    -0.52000
O1035       O  0.67669983  0.15408666  0.80534271    -0.75200
O1036       O  0.79081289  0.14359673  0.80267716    -0.82000
O1037       O  0.65925463  0.18686652  0.68309756    -0.83800
O1038       O  0.82984501  0.19009272  0.83455826    -0.79400
O1039       O  0.71105481  0.14475097  0.70116742    -0.91000
O1040       O  0.65358889  0.21396737  0.83056347    -0.77000
O1041       O  0.74325547  0.22291465  0.81310756    -0.86500
O1042       O  0.67992828  0.22259848  0.75500005    -0.86200
O1043       O  0.80249894  0.20280164  0.75354348    -0.72900
O1044       O  0.74344986  0.20406095  0.70092842    -0.85100
Zr1045     Zr  0.76719232  0.33275432  0.73192955     2.26400
Zr1046     Zr  0.81004740  0.25350889  0.80301881     2.06300
Zr1047     Zr  0.68936315  0.25373280  0.69338164     2.10000
Zr1048     Zr  0.68935198  0.27177738  0.80382458     1.78800
O1049       O  0.69570942  0.24317235  0.62461779    -0.93900
O1050       O  0.69842186  0.28067362  0.87286909    -0.41700
O1051       O  0.69900484  0.30403528  0.74242927    -0.78300
O1052       O  0.75516058  0.30232047  0.79510523    -0.97000
O1053       O  0.82057753  0.28297399  0.74063382    -0.90300
O1054       O  0.75621536  0.28323909  0.68257204    -0.93100
C1055       C  0.65177749  0.17519564  0.82640684     1.00600
C1056       C  0.68075122  0.15437259  0.67867370     1.13500
C1057       C  0.82060931  0.15338004  0.82565829     1.04300
O1058       O  0.81001129  0.26495096  0.87220379    -0.95300
O1059       O  0.83959019  0.32041937  0.81620792    -0.91000
O1060       O  0.79634022  0.36706814  0.78912753    -0.84200
C1061       C  0.82213644  0.35567353  0.81538952     1.11000
O1062       O  0.83976604  0.16723502  0.67551673    -0.97300
Zr1063     Zr  0.80991605  0.23364806  0.69161944     1.88900
O1064       O  0.82702363  0.34491717  0.68683179    -0.73900
O1065       O  0.88497128  0.24470497  0.79787563    -0.53200
O1066       O  0.88376729  0.23733926  0.70600908    -0.97900
O1067       O  0.80436430  0.20509911  0.62715774    -0.55100
O1068       O  0.83048528  0.28837120  0.64987643    -0.74400
C1069       C  0.84271534  0.32407262  0.65860944     0.97900
O1070       O  0.77166404  0.40689995  0.72844402    -0.63300
O1071       O  0.61431127  0.26300719  0.69222708    -0.58100
O1072       O  0.70667771  0.36335194  0.69854470    -0.94700
O1073       O  0.66568166  0.31839071  0.66692065    -0.93200
O1074       O  0.61672992  0.28636999  0.79058239    -0.93500
O1075       O  0.66513146  0.33669655  0.82994391    -0.92300
C1076       C  0.67536860  0.35468607  0.67688177     1.16700
H1077       H  0.65299353  0.21040832  0.75621356     0.32700
H1078       H  0.75415558  0.32086289  0.81655386     0.43500
H1079       H  0.75649470  0.29561044  0.65749308     0.37100
H1080       H  0.82453560  0.18275485  0.75478531     0.33500
H1081       H  0.67038514  0.27715060  0.88405638     0.25300
H1082       H  0.89457987  0.24127746  0.82467828     0.31300
H1083       H  0.89036340  0.26670569  0.70784269     0.37200
H1084       H  0.60189924  0.27878023  0.81448845     0.31600
H1085       H  0.60487515  0.24733359  0.66959564     0.30500
H1086       H  0.66680109  0.24117737  0.61542738     0.32200
H1087       H  0.80868661  0.22812893  0.60926666     0.31200
H1088       H  0.67425310  0.35724005  0.81091428     0.35200
H1089       H  0.76888621  0.41374058  0.70085880     0.27900
H1090       H  0.73340849  0.09022258  0.78868222     0.32100
H1091       H  0.86950599  0.17194267  0.67015232     0.35000
H1092       H  0.60377021  0.24758141  0.71462613     0.27600
H1093       H  0.74587658  0.41733309  0.74063093     0.40500
H1094       H  0.78759176  0.28516199  0.87676488     0.30500
H1095       H  0.71399249  0.25615774  0.88127300     0.38100
H1096       H  0.77469134  0.19823295  0.62448784     0.30000
H1097       H  0.88911194  0.21755969  0.78591131     0.30100
H1098       H  0.75995050  0.09060953  0.75078951     0.30300
C1099       C  0.12424861  0.84491730  0.84818737     0.79500
N1100       N  0.11607433  0.88061634  0.86708694    -0.78800
C1101       C  0.07697086  0.88809734  0.88099714     0.82000
N1102       N  0.04685534  0.85970652  0.87650867    -0.78700
C1103       C  0.05491552  0.82414229  0.85797033     0.82100
N1104       N  0.09367584  0.81719855  0.84401141    -0.80500
C1105       C  0.91930316  0.62501287  0.88145490     0.79500
N1106       N  0.94827338  0.65453852  0.87695289    -0.78800
C1107       C  0.93836691  0.69040056  0.85989216     0.82000
N1108       N  0.89898667  0.69680626  0.84782967    -0.78700
C1109       C  0.86969686  0.66770939  0.85179691     0.82100
N1110       N  0.87975961  0.63144758  0.86872139    -0.80500
C1111       C  0.85003077  0.12017109  0.83544120     0.79500
N1112       N  0.85537209  0.09217328  0.80727455    -0.78800
C1113       C  0.88511840  0.06348429  0.80949572     0.82000
N1114       N  0.90946225  0.06187486  0.84077005    -0.78700
C1115       C  0.90511386  0.08882452  0.87003250     0.82100
N1116       N  0.87516777  0.11895680  0.86750413    -0.80500
C1117       C  0.91316024  0.92010174  0.63101662     0.79500
N1118       N  0.91706320  0.94636295  0.66079173    -0.78800
C1119       C  0.89721478  0.93993687  0.69426874     0.82000
N1120       N  0.87282226  0.90724323  0.69804591    -0.78700
C1121       C  0.86785002  0.88063195  0.66870070     0.82100
N1122       N  0.88795936  0.88678549  0.63447191    -0.80500
Zr1123     Zr  0.76573414  0.77481707  0.67291552     2.17500
O1124       O  0.76601958  0.77365828  0.60281451    -0.52000
O1125       O  0.81303628  0.83216644  0.66107731    -0.75200
O1126       O  0.70502134  0.81090372  0.64557237    -0.82000
O1127       O  0.84192433  0.67883590  0.67890705    -0.83800
O1128       O  0.68005523  0.85112117  0.69364503    -0.79400
O1129       O  0.80785558  0.72334476  0.63979598    -0.91000
O1130       O  0.85761552  0.82848530  0.71086029    -0.77000
O1131       O  0.76331663  0.82490496  0.72253504    -0.86500
O1132       O  0.82076003  0.75755238  0.71572296    -0.86200
O1133       O  0.69896054  0.76531707  0.70372727    -0.72900
O1134       O  0.75385155  0.70622866  0.69605403    -0.85100
Zr1135     Zr  0.74018515  0.73321070  0.82037913     2.26400
Zr1136     Zr  0.69714289  0.81624658  0.75312550     2.06300
Zr1137     Zr  0.80861170  0.69056070  0.74026328     2.10000
Zr1138     Zr  0.81786152  0.80714991  0.76533700     1.78800
O1139       O  0.79564156  0.61961843  0.72381626    -0.93900
O1140       O  0.80999455  0.88082889  0.77192836    -0.41700
O1141       O  0.80650645  0.74062868  0.79021531    -0.78300
O1142       O  0.75248244  0.80143750  0.79717533    -0.97000
O1143       O  0.68479708  0.74914304  0.77776905    -0.90300
O1144       O  0.74299191  0.68226404  0.77130038    -0.93100
C1145       C  0.84562700  0.84364897  0.67908857     1.00600
C1146       C  0.83331704  0.69356032  0.64588950     1.13500
C1147       C  0.67884945  0.83713056  0.65934272     1.04300
O1148       O  0.70434803  0.88897041  0.76561074    -0.95300
O1149       O  0.66904216  0.83376978  0.81563483    -0.91000
O1150       O  0.70078470  0.78634636  0.85325734    -0.84200
C1151       C  0.67845392  0.81861022  0.84829764     1.11000
O1152       O  0.66565620  0.67804689  0.66489970    -0.97300
Zr1153     Zr  0.68844147  0.69905645  0.72857863     1.88900
O1154       O  0.69168476  0.67896428  0.83556319    -0.73900
O1155       O  0.62174906  0.81789765  0.74922513    -0.53200
O1156       O  0.61642382  0.71507703  0.71356536    -0.97900
O1157       O  0.69095225  0.62496715  0.72384527    -0.55100
O1158       O  0.64896398  0.67794370  0.78407613    -0.74400
C1159       C  0.65958329  0.66636002  0.81774889     0.97900
O1160       O  0.74032365  0.72901435  0.89034303    -0.63300
O1161       O  0.88310262  0.68320706  0.75008494    -0.58100
O1162       O  0.80657374  0.70457779  0.84383676    -0.94700
O1163       O  0.82488923  0.65660498  0.80030262    -0.93200
O1164       O  0.89047359  0.79236535  0.77888528    -0.93500
O1165       O  0.84368849  0.83043432  0.82710718    -0.92300
C1166       C  0.83000996  0.67487580  0.83233960     1.16700
H1167       H  0.84720910  0.75728648  0.70252965     0.32700
H1168       H  0.75327503  0.82124149  0.81770194     0.43500
H1169       H  0.74038546  0.65499563  0.78145494     0.37100
H1170       H  0.67499532  0.76748386  0.68741953     0.33500
H1171       H  0.80214173  0.89092070  0.74615404     0.25300
H1172       H  0.61462293  0.84685960  0.74433385     0.31300
H1173       H  0.60067530  0.69062764  0.72142889     0.37200
H1174       H  0.89071473  0.76404588  0.78875226     0.31600
H1175       H  0.89071947  0.65687362  0.73791456     0.30500
H1176       H  0.82355687  0.60714641  0.72121067     0.32200
H1177       H  0.70637114  0.61899009  0.69980352     0.31200
H1178       H  0.84640261  0.80524389  0.84260315     0.35200
H1179       H  0.74856769  0.70060028  0.89642427     0.27900
H1180       H  0.76509645  0.80262240  0.59478258     0.32100
H1181       H  0.67921154  0.69739029  0.64705952     0.35000
H1182       H  0.89595849  0.70419240  0.73351524     0.27600
H1183       H  0.76404958  0.74585053  0.89859302     0.40500
H1184       H  0.72082197  0.89951082  0.74373787     0.30500
H1185       H  0.78486383  0.88480087  0.78794752     0.38100
H1186       H  0.66205648  0.61673997  0.71851966     0.30000
H1187       H  0.61511725  0.80370314  0.72493063     0.30100
H1188       H  0.73882741  0.76239716  0.59529845     0.30300
Zr1189     Zr  0.98221936  0.49659609  0.91648152     2.17500
O1190       O  0.97682820  0.50786321  0.84751074    -0.52000
O1191       O  0.92405048  0.45213287  0.89786866    -0.75200
O1192       O  0.03691138  0.46047963  0.87918833    -0.82000
O1193       O  0.92036640  0.59502241  0.94203800    -0.83800
O1194       O  0.08107878  0.42448378  0.91736666    -0.79400
O1195       O  0.95209341  0.56109561  0.89270117    -0.91000
O1196       O  0.89994953  0.42654182  0.95411700    -0.77000
O1197       O  0.99167560  0.43886430  0.95739550    -0.86500
O1198       O  0.93125287  0.50346385  0.96630910    -0.86200
O1199       O  0.05175987  0.50205792  0.94146993    -0.72900
O1200       O  0.99519467  0.55938975  0.95013380    -0.85100
Zr1201     Zr  0.02578802  0.51107484  0.06617548     2.26400
Zr1202     Zr  0.06084554  0.44376187  0.98253323     2.06300
Zr1203     Zr  0.94546712  0.56483386  0.00108763     2.10000
Zr1204     Zr  0.94149316  0.44669830  0.00748410     1.78800
O1205       O  0.95038730  0.63874762  0.00587842    -0.93900
O1206       O  0.94550005  0.37243007  0.00744260    -0.41700
O1207       O  0.95593703  0.50739323  0.04249012    -0.78300
O1208       O  0.00973491  0.44873602  0.03262540    -1.00200
O1209       O  0.07587072  0.50602691  0.01579753    -0.90300
O1210       O  0.01427173  0.56956421  0.02649883    -0.93100
C1211       C  0.89809619  0.43110612  0.91770734     1.00600
C1212       C  0.92986617  0.59057444  0.90647302     1.13500
C1213       C  0.06886255  0.43710180  0.88435464     1.04300
O1214       O  0.05941651  0.36999718  0.97466958    -0.95300
O1215       O  0.08395670  0.41108878  0.04169920    -0.91000
O1216       O  0.06387774  0.45165305  0.09175932    -0.84200
C1217       C  0.08061059  0.41902139  0.07776522     1.11000
O1218       O  0.08559394  0.59103554  0.91385293    -0.97300
Zr1219     Zr  0.06334767  0.56374055  0.97571431     1.88900
O1220       O  0.07855666  0.56038938  0.08670588    -0.73900
O1221       O  0.13612024  0.44851467  0.98185328    -0.53200
O1222       O  0.13687024  0.55280099  0.96243135    -0.97900
O1223       O  0.05116282  0.63705170  0.97012794    -0.55100
O1224       O  0.09813124  0.58996627  0.03078269    -0.74400
C1225       C  0.10066286  0.58543437  0.06716120     0.97900
O1226       O  0.02773691  0.49597671  0.13486207    -0.63300
O1227       O  0.87017365  0.56324604  0.00770116    -0.58100
O1228       O  0.96943398  0.54345813  0.10198800    -0.94700
O1229       O  0.92584776  0.58275854  0.06639356    -0.93200
O1230       O  0.87290071  0.46702802  0.03040553    -0.93500
O1231       O  0.92112776  0.41323509  0.06703239    -0.92300
C1232       C  0.93813208  0.56760684  0.09830424     1.16700
H1233       H  0.90355000  0.50471065  0.95594326     0.32700
H1234       H  0.00986259  0.42537013  0.04942685     0.43500
H1235       H  0.01720467  0.59459222  0.04085735     0.37100
H1236       H  0.07282898  0.50313644  0.92174188     0.33500
H1237       H  0.91657088  0.36324385  0.00410079     0.25300
H1238       H  0.14586960  0.42032355  0.97669198     0.31300
H1239       H  0.14945920  0.54619219  0.98758551     0.37200
H1240       H  0.85573766  0.46952310  0.00700229     0.31600
H1241       H  0.86211585  0.59164485  0.01415459     0.30500
H1242       H  0.92169935  0.64811221  0.01130485     0.32200
H1243       H  0.04747931  0.64698128  0.99680648     0.31200
H1244       H  0.93182862  0.43118747  0.08756906     0.35200
H1245       H  0.02841738  0.52273358  0.14805987     0.27900
H1246       H  0.97627026  0.48044130  0.83557822     0.32100
H1247       H  0.10631407  0.61227632  0.91964852     0.35000
H1248       H  0.85944176  0.55909252  0.98139509     0.27600
H1249       H  0.00027603  0.48442143  0.14131659     0.40500
H1250       H  0.03789884  0.36068251  0.99297747     0.30500
H1251       H  0.95931764  0.36531507  0.98285246     0.38100
H1252       H  0.02330631  0.63961693  0.95850990     0.30000
H1253       H  0.14274466  0.46372349  0.95805971     0.30100
H1254       H  0.00397923  0.51943166  0.84015185     0.30300
C1255       C  0.40343835  0.07474535  0.63535004     0.79500
N1256       N  0.40469159  0.04496542  0.66228206    -0.78800
C1257       C  0.38022962  0.04692958  0.69362442     0.82000
N1258       N  0.35430256  0.07892706  0.69841915    -0.78700
C1259       C  0.35285735  0.10968268  0.67276165     0.82100
N1260       N  0.37764447  0.10790438  0.64055157    -0.80500
C1261       C  0.41055283  0.90952046  0.87307794     0.79500
N1262       N  0.40772155  0.93719589  0.84441878    -0.78800
C1263       C  0.38031505  0.93225028  0.81578743     0.82000
N1264       N  0.35669930  0.89879270  0.81458607    -0.78700
C1265       C  0.35964703  0.87024431  0.84227277     0.82100
N1266       N  0.38637919  0.87537995  0.87226632    -0.80500
C1267       C  0.13379288  0.61014149  0.08429416     0.79500
N1268       N  0.13676054  0.62079400  0.12231011    -0.78800
C1269       C  0.16918226  0.64503823  0.13331218     0.82000
N1270       N  0.19742138  0.65761375  0.10706702    -0.78700
C1271       C  0.19388049  0.64751504  0.06975571     0.82100
N1272       N  0.16240118  0.62379192  0.05883465    -0.80500
C1273       C  0.33661496  0.67753317  0.89241771     0.79500
N1274       N  0.31351199  0.68545050  0.92400048    -0.78800
C1275       C  0.32294672  0.66958411  0.95861849     0.82000
N1276       N  0.35721076  0.64587934  0.96203813    -0.78700
C1277       C  0.38162704  0.63776959  0.93098754     0.82100
N1278       N  0.37067811  0.65251598  0.89545902    -0.80500
Zr1279     Zr  0.25539824  0.74449738  0.67286173     2.17500
O1280       O  0.27243445  0.75584552  0.60545745    -0.52000
O1281       O  0.21097652  0.68791750  0.65193498    -0.75200
O1282       O  0.31657522  0.70511127  0.65049052    -0.82000
O1283       O  0.18070595  0.84005346  0.67138716    -0.83800
O1284       O  0.34142933  0.66841300  0.70102441    -0.79400
O1285       O  0.21666766  0.79437211  0.63462589    -0.91000
O1286       O  0.15797640  0.68764715  0.69472835    -0.77000
O1287       O  0.24918303  0.69148150  0.71939614    -0.86500
O1288       O  0.19371260  0.75966047  0.70839370    -0.86200
O1289       O  0.31644183  0.75087604  0.71250657    -0.72900
O1290       O  0.26379827  0.81156249  0.70078419    -0.85100
Zr1291     Zr  0.25497937  0.77637564  0.82447152     2.26400
Zr1292     Zr  0.30964086  0.69715711  0.75888584     2.06300
Zr1293     Zr  0.20184706  0.82527463  0.73738287     2.10000
Zr1294     Zr  0.18790503  0.70729586  0.75525824     1.78800
O1295       O  0.21458991  0.89798428  0.73033676    -0.93900
O1296       O  0.18999574  0.63340506  0.76097329    -0.41700
O1297       O  0.19531111  0.77236796  0.78429402    -0.78300
O1298       O  0.24760557  0.70975197  0.79603114    -0.97000
O1299       O  0.31675871  0.76243077  0.78843110    -0.90300
O1300       O  0.26121785  0.83102831  0.77843981    -0.93100
C1301       C  0.17601988  0.67453764  0.66437333     1.00600
C1302       C  0.19147113  0.82477420  0.63879595     1.13500
C1303       C  0.34246590  0.67974620  0.66574676     1.04300
O1304       O  0.29502877  0.62486975  0.76625707    -0.95300
O1305       O  0.33287059  0.68090557  0.82362799    -0.91000
O1306       O  0.29536260  0.72544127  0.86015218    -0.84200
C1307       C  0.32145148  0.69572719  0.85613272     1.11000
O1308       O  0.36800840  0.81750924  0.68643467    -0.97300
Zr1309     Zr  0.32261950  0.81570803  0.74269294     1.88900
O1310       O  0.30082375  0.82861774  0.84825288    -0.73900
O1311       O  0.38473119  0.69278251  0.76587712    -0.53200
O1312       O  0.39501382  0.83675530  0.74416918    -0.97900
O1313       O  0.30965621  0.88836192  0.73426107    -0.55100
O1314       O  0.35048341  0.81043215  0.80742479    -0.74400
C1315       C  0.33733295  0.83286991  0.83486732     0.97900
O1316       O  0.23420351  0.77294330  0.89189804    -0.63300
O1317       O  0.12658776  0.83227809  0.73531938    -0.58100
O1318       O  0.18815650  0.80843073  0.84295869    -0.94700
O1319       O  0.16882700  0.85195264  0.79529145    -0.93200
O1320       O  0.11433366  0.72368496  0.76060049    -0.93500
O1321       O  0.15405698  0.68332512  0.81366509    -0.92300
C1322       C  0.16403523  0.83613494  0.82869431     1.16700
H1323       H  0.16971677  0.76048325  0.69170420     0.32700
H1324       H  0.24461249  0.68912441  0.81567491     0.43500
H1325       H  0.26208440  0.85764353  0.79052865     0.37100
H1326       H  0.34218147  0.74793266  0.69865676     0.33500
H1327       H  0.16131599  0.62453963  0.75561162     0.25300
H1328       H  0.39231736  0.66439967  0.75889604     0.31300
H1329       H  0.39483329  0.86585207  0.75170689     0.37200
H1330       H  0.11322312  0.75055087  0.77360577     0.31600
H1331       H  0.12123120  0.85834159  0.72180979     0.30500
H1332       H  0.18842064  0.90927073  0.71989768     0.32200
H1333       H  0.29346259  0.89012915  0.71022504     0.31200
H1334       H  0.16378490  0.70202429  0.83403368     0.35200
H1335       H  0.22582521  0.74429493  0.89621201     0.27900
H1336       H  0.27347584  0.72842367  0.59352420     0.32100
H1337       H  0.34905197  0.82168330  0.66446113     0.35000
H1338       H  0.11720082  0.81091196  0.71729323     0.27600
H1339       H  0.26000089  0.77625688  0.90686358     0.40500
H1340       H  0.28898634  0.61534498  0.73988583     0.30500
H1341       H  0.20617283  0.62450178  0.73825867     0.38100
H1342       H  0.33681012  0.90010258  0.72719996     0.30000
H1343       H  0.39611356  0.70973593  0.74483487     0.30100
H1344       H  0.30142342  0.76560211  0.60510502     0.30300
C1345       C  0.26729791  0.65836131  0.05408299    -0.13000
C1346       C  0.22605698  0.65879538  0.04197291     0.04000
C1347       C  0.21706689  0.66736639  0.00320715    -0.08300
C1348       C  0.24938620  0.67302830  0.97725289    -0.09000
C1349       C  0.29093547  0.67066073  0.98896630    -0.03600
C1350       C  0.29965567  0.66503929  0.02824295     0.03300
N1351       N  0.34079506  0.66648205  0.04280549     0.65800
H1352       H  0.27470907  0.65124163  0.08358297     0.14700
H1353       H  0.24153570  0.67765348  0.94731395     0.14400
N1354       N  0.17556897  0.67030432  0.98930299     0.73500
O1355       O  0.35350012  0.69974815  0.05651470    -0.40000
O1356       O  0.35714706  0.63370832  0.05424980    -0.39900
O1357       O  0.16098686  0.70521746  0.98185428    -0.40600
O1358       O  0.16021262  0.63973970  0.97273882    -0.40700
C1359       C  0.41664361  0.96807536  0.76488561    -0.13000
C1360       C  0.37947902  0.96060700  0.78411442     0.04000
C1361       C  0.34252141  0.97947440  0.77218250    -0.08300
C1362       C  0.34353742  0.00626149  0.74139835    -0.09000
C1363       C  0.38094511  0.01492030  0.72264023    -0.03600
C1364       C  0.41781998  0.99512720  0.73423491     0.03300
N1365       N  0.45702149  0.00323922  0.71687982     0.65800
H1366       H  0.44504690  0.95310383  0.77398494     0.14700
H1367       H  0.31497465  0.02125978  0.73282887     0.14400
N1368       N  0.30443248  0.97440318  0.79265729     0.73500
O1369       O  0.48011689  0.02937644  0.73239664    -0.40000
O1370       O  0.47348026  0.97554564  0.69663558    -0.39900
O1371       O  0.29402189  0.00110800  0.81704999    -0.40600
O1372       O  0.27665141  0.95241175  0.77815652    -0.40700
C1373       C  0.89995405  0.99293058  0.79031321    -0.13000
C1374       C  0.88971885  0.03276202  0.77930143     0.04000
C1375       C  0.88376590  0.04183628  0.74005812    -0.08300
C1376       C  0.88813143  0.01106164  0.71282896    -0.09000
C1377       C  0.89735854  0.97115737  0.72399626    -0.03600
C1378       C  0.90333088  0.96199405  0.76309897     0.03300
N1379       N  0.91416643  0.92199709  0.77577163     0.65800
H1380       H  0.90467445  0.98550982  0.82035123     0.14700
H1381       H  0.88302477  0.01822712  0.68278381     0.14400
N1382       N  0.87389878  0.08195658  0.72698021     0.73500
O1383       O  0.95207387  0.91332268  0.77963079    -0.40000
O1384       O  0.88785959  0.90221149  0.79495285    -0.39900
O1385       O  0.90208747  0.10252986  0.71110890    -0.40600
O1386       O  0.83658994  0.09033557  0.71942866    -0.40700
C1387       C  0.95386187  0.76395029  0.86246731    -0.13000
C1388       C  0.96860424  0.72399217  0.85758420     0.04000
C1389       C  0.01137708  0.71764893  0.85114213    -0.08300
C1390       C  0.03821472  0.75087605  0.85056584    -0.09000
C1391       C  0.02376202  0.79093979  0.85646869    -0.03600
C1392       C  0.98068770  0.79721616  0.86211136     0.03300
N1393       N  0.96292796  0.83684071  0.86680156     0.65800
H1394       H  0.92107768  0.76958143  0.86725344     0.14700
H1395       H  0.07092896  0.74482724  0.84595542     0.14400
N1396       N  0.02834248  0.67810155  0.84369676     0.73500
O1397       O  0.94617803  0.85331659  0.83801637    -0.40000
O1398       O  0.95076489  0.84731337  0.89988349    -0.39900
O1399       O  0.03593131  0.66825487  0.80929608    -0.40600
O1400       O  0.04809815  0.66041592  0.87015779    -0.40700
C1401       C  0.72172962  0.37209254  0.93433114    -0.13000
C1402       C  0.76392926  0.37324971  0.94386025     0.04000
C1403       C  0.77546476  0.36413535  0.98210099    -0.08300
C1404       C  0.74526286  0.35740518  0.01002267    -0.09000
C1405       C  0.70290313  0.35822914  0.00136225    -0.03600
C1406       C  0.69111154  0.36345625  0.96233848     0.03300
N1407       N  0.64933651  0.35666919  0.95002916     0.65800
H1408       H  0.71266295  0.37718711  0.90476850     0.14700
H1409       H  0.75560669  0.35210430  0.03918805     0.14400
N1410       N  0.81779746  0.36029484  0.99346656     0.73500
O1411       O  0.63601298  0.37426682  0.92025331    -0.40000
O1412       O  0.62985969  0.32625800  0.96279340    -0.39900
O1413       O  0.83275657  0.38744976  0.01491978    -0.40600
O1414       O  0.83397971  0.32513932  0.99388127    -0.40700
C1415       C  0.04417748  0.24133119  0.61174609    -0.13000
C1416       C  0.02989174  0.20469960  0.62743668     0.04000
C1417       C  0.98830007  0.20164718  0.63898923    -0.08300
C1418       C  0.96170161  0.23494827  0.63430939    -0.09000
C1419       C  0.97596174  0.27227332  0.61964082    -0.03600
C1420       C  0.01799105  0.27520786  0.60813568     0.03300
N1421       N  0.03559330  0.31240365  0.59463059     0.65800
H1422       H  0.07636575  0.24399763  0.60300390     0.14700
H1423       H  0.92967093  0.23156491  0.64305881     0.14400
N1424       N  0.97316312  0.16648096  0.65844847     0.73500
O1425       O  0.05595366  0.33379570  0.61795158    -0.40000
O1426       O  0.04345597  0.31564175  0.55924447    -0.39900
O1427       O  0.96991671  0.16768884  0.69457629    -0.40600
O1428       O  0.95089024  0.14187389  0.64013078    -0.40700
C1429       C  0.49794604  0.21101710  0.90134664    -0.13000
C1430       C  0.51152485  0.20090996  0.86418617     0.04000
C1431       C  0.49814292  0.22506981  0.83297554    -0.08300
C1432       C  0.47239616  0.25877611  0.83955300    -0.09000
C1433       C  0.45946375  0.26943037  0.87672388    -0.03600
C1434       C  0.47238380  0.24508199  0.90793797     0.03300
N1435       N  0.45957061  0.25377573  0.94638371     0.65800
H1436       H  0.50856047  0.19333330  0.92569757     0.14700
H1437       H  0.46266903  0.27706742  0.81521641     0.14400
N1438       N  0.50947104  0.21557347  0.79424449     0.73500
O1439       O  0.43031669  0.23334860  0.96065895    -0.40000
O1440       O  0.48508102  0.27042516  0.96872186    -0.39900
O1441       O  0.48350024  0.19734299  0.77349320    -0.40600
O1442       O  0.53720850  0.23651783  0.77812058    -0.40700
C1443       C  0.26359435  0.82540721  0.45804391    -0.13000
C1444       C  0.27043871  0.86393331  0.44249424     0.04000
C1445       C  0.24826002  0.89791258  0.45594278    -0.08300
C1446       C  0.22027913  0.89323289  0.48618277    -0.09000
C1447       C  0.21419858  0.85476971  0.50315913    -0.03600
C1448       C  0.23578650  0.82049453  0.48848824     0.03300
N1449       N  0.23053309  0.78064708  0.50404275     0.65800
H1450       H  0.28130519  0.79936815  0.44768718     0.14700
H1451       H  0.20426886  0.91996383  0.49727290     0.14400
N1452       N  0.25523699  0.93736315  0.43968992     0.73500
O1453       O  0.20747651  0.75610417  0.48634495    -0.40000
O1454       O  0.25898515  0.76633696  0.52490407    -0.39900
O1455       O  0.24330887  0.94440665  0.40583290    -0.40600
O1456       O  0.28241371  0.96000602  0.45433072    -0.40700
C1457       C  0.37030395  0.53919694  0.26285565    -0.13000
C1458       C  0.41128630  0.55208037  0.26702531     0.04000
C1459       C  0.44340363  0.53094400  0.24783586    -0.08300
C1460       C  0.43373238  0.49766842  0.22456238    -0.09000
C1461       C  0.39259670  0.48489208  0.22035912    -0.03600
C1462       C  0.36064272  0.50606296  0.23975264     0.03300
N1463       N  0.31803471  0.49592068  0.23511498     0.65800
H1464       H  0.34537250  0.55485165  0.27797302     0.14700
H1465       H  0.45853677  0.48198487  0.20932078     0.14400
N1466       N  0.48550497  0.54379657  0.24984072     0.73500
O1467       O  0.30012357  0.47708804  0.26197328    -0.40000
O1468       O  0.29637737  0.51707031  0.21240328    -0.39900
O1469       O  0.51083260  0.52236299  0.26872961    -0.40600
O1470       O  0.49925766  0.56646677  0.22348014    -0.40700
C1471       C  0.80645786  0.85219852  0.98774714    -0.13000
C1472       C  0.79486780  0.84862174  0.02620591     0.04000
C1473       C  0.75264141  0.84620020  0.03657612    -0.08300
C1474       C  0.72270450  0.84938011  0.00827409    -0.09000
C1475       C  0.73421545  0.85431269  0.96988160    -0.03600
C1476       C  0.77648370  0.85459656  0.95935743     0.03300
N1477       N  0.78975568  0.85913298  0.92045945     0.65800
H1478       H  0.83894709  0.85414115  0.97980889     0.14700
H1479       H  0.69022637  0.84849117  0.01644258     0.14400
N1480       N  0.73929436  0.84293744  0.07562517     0.73500
O1481       O  0.80135070  0.89382672  0.90919795    -0.40000
O1482       O  0.80289336  0.82791985  0.90291203    -0.39900
O1483       O  0.72708296  0.87476314  0.09280971    -0.40600
O1484       O  0.72671482  0.80880423  0.08739889    -0.40700
C1485       C  0.97950577  0.73534337  0.39088302    -0.13000
C1486       C  0.01889181  0.74620133  0.37719123     0.04000
C1487       C  0.02523620  0.78666520  0.36426543    -0.08300
C1488       C  0.99247950  0.81476040  0.36542197    -0.09000
C1489       C  0.95316257  0.80349284  0.37864450    -0.03600
C1490       C  0.94681944  0.76335064  0.39165765     0.03300
N1491       N  0.90797396  0.75054293  0.40703799     0.65800
H1492       H  0.97363205  0.70460954  0.40088414     0.14700
H1493       H  0.99776573  0.84561620  0.35540921     0.14400
N1494       N  0.06457582  0.80048470  0.35076565     0.73500
O1495       O  0.88413994  0.73044405  0.38569580    -0.40000
O1496       O  0.90438922  0.74690448  0.44300064    -0.39900
O1497       O  0.06940573  0.80618556  0.31516643    -0.40600
O1498       O  0.08764569  0.81934590  0.37384070    -0.40700
C1499       C  0.60793676  0.97886498  0.23769359    -0.13000
C1500       C  0.61187288  0.98904836  0.27645347     0.04000
C1501       C  0.60991886  0.03043563  0.28770923    -0.08300
C1502       C  0.60384462  0.06060283  0.26009121    -0.09000
C1503       C  0.59932217  0.05031720  0.22139427    -0.03600
C1504       C  0.60163234  0.00890533  0.21012675     0.03300
N1505       N  0.59947554  0.99655981  0.17083955     0.65800
H1506       H  0.60932102  0.94721711  0.22864570     0.14700
H1507       H  0.60265439  0.09229542  0.26901998     0.14400
N1508       N  0.61540934  0.04278714  0.32664719     0.73500
O1509       O  0.63288513  0.99036196  0.15268453    -0.40000
O1510       O  0.56697602  0.97929802  0.15938744    -0.39900
O1511       O  0.65010080  0.05687765  0.33643734    -0.40600
O1512       O  0.58372498  0.05257328  0.34599900    -0.40700
C1513       C  0.85993288  0.45682872  0.25743597    -0.13000
C1514       C  0.89919907  0.44536115  0.27085203     0.04000
C1515       C  0.93460868  0.46539163  0.25675740    -0.08300
C1516       C  0.93015728  0.49621801  0.22944924    -0.09000
C1517       C  0.89082206  0.50864405  0.21709536    -0.03600
C1518       C  0.85534425  0.48877161  0.23132112     0.03300
N1519       N  0.81452751  0.50021166  0.21959902     0.65800
H1520       H  0.83241149  0.44200342  0.26852400     0.14700
H1521       H  0.95760660  0.51144570  0.21871476     0.14400
N1522       N  0.97524231  0.45515193  0.26973923     0.73500
O1523       O  0.79723547  0.47968856  0.19359381    -0.40000
O1524       O  0.79215152  0.52055704  0.24258689    -0.39900
O1525       O  0.99884161  0.43505482  0.24762648    -0.40600
O1526       O  0.99117847  0.47675343  0.29570467    -0.40700
C1527       C  0.16570193  0.49702617  0.74947797    -0.13000
C1528       C  0.12589503  0.48667803  0.76247335     0.04000
C1529       C  0.09094105  0.50364132  0.74401591    -0.08300
C1530       C  0.09662333  0.53035461  0.71319913    -0.09000
C1531       C  0.13647694  0.54027551  0.70035952    -0.03600
C1532       C  0.17128789  0.52323242  0.71856186     0.03300
N1533       N  0.21242193  0.52990837  0.70472015     0.65800
H1534       H  0.19299049  0.48402987  0.76298227     0.14700
H1535       H  0.06968728  0.54344421  0.69917954     0.14400
N1536       N  0.04965542  0.49267979  0.75436808     0.73500
O1537       O  0.23523230  0.55436624  0.72272942    -0.40000
O1538       O  0.22939182  0.50250454  0.68445336    -0.39900
O1539       O  0.02691926  0.51922976  0.77033006    -0.40600
O1540       O  0.03263196  0.46401896  0.73623750    -0.40700
C1541       C  0.26093054  0.16277604  0.95542302    -0.13000
C1542       C  0.21842205  0.15941292  0.96206818     0.04000
C1543       C  0.20375711  0.16287632  0.00057737    -0.08300
C1544       C  0.23167273  0.16416451  0.03123162    -0.09000
C1545       C  0.27428607  0.16192603  0.02475720    -0.03600
C1546       C  0.28889066  0.16398492  0.98609582     0.03300
N1547       N  0.33195587  0.16657575  0.97692312     0.65800
H1548       H  0.27295179  0.16160518  0.92628984     0.14700
H1549       H  0.21963352  0.16374026  0.06037035     0.14400
N1550       N  0.16065324  0.16354354  0.00974904     0.73500
O1551       O  0.35038499  0.13487665  0.96507746    -0.40000
O1552       O  0.34602941  0.20087797  0.96718718    -0.39900
O1553       O  0.14386830  0.19751002  0.01734521    -0.40600
O1554       O  0.14501938  0.13172591  0.02386064    -0.40700
C1555       C  0.57679648  0.51867292  0.77465527    -0.13000
C1556       C  0.61533565  0.53211466  0.78747684     0.04000
C1557       C  0.65198769  0.51664593  0.77082690    -0.08300
C1558       C  0.64955296  0.48874653  0.74100478    -0.09000
C1559       C  0.61113104  0.47551980  0.72751548    -0.03600
C1560       C  0.57432742  0.49030032  0.74481625     0.03300
N1561       N  0.53453461  0.47533870  0.73435313     0.65800
H1562       H  0.54854354  0.53048698  0.78764822     0.14700
H1563       H  0.67812519  0.47729702  0.72831063     0.14400
N1564       N  0.69199006  0.52752274  0.78477490     0.73500
O1565       O  0.51974395  0.44596048  0.75324484    -0.40000
O1566       O  0.50990806  0.49909317  0.71722285    -0.39900
O1567       O  0.71058148  0.50294440  0.80675749    -0.40600
O1568       O  0.71306762  0.55302199  0.76604637    -0.40700
C1569       C  0.53546092  0.24800432  0.35012341    -0.13000
C1570       C  0.51605533  0.28621701  0.35420547     0.04000
C1571       C  0.47292499  0.28806758  0.36037615    -0.08300
C1572       C  0.45009432  0.25199893  0.36076485    -0.09000
C1573       C  0.46925946  0.21394222  0.35461989    -0.03600
C1574       C  0.51263626  0.21202923  0.35026504     0.03300
N1575       N  0.53413154  0.17440740  0.34411853     0.65800
H1576       H  0.56875876  0.24601209  0.34596137     0.14700
H1577       H  0.41687817  0.25384523  0.36531928     0.14400
N1578       N  0.45124438  0.32599915  0.36374589     0.73500
O1579       O  0.54288805  0.16411207  0.31007173    -0.40000
O1580       O  0.55607232  0.16049311  0.37105320    -0.39900
O1581       O  0.43447335  0.34084555  0.33414946    -0.40600
O1582       O  0.43766714  0.33655846  0.39634175    -0.40700
C1583       C  0.22799635  0.35358249  0.54032377    -0.13000
C1584       C  0.26990428  0.35973028  0.53241534     0.04000
C1585       C  0.28384680  0.35659089  0.49391179    -0.08300
C1586       C  0.25513045  0.35323705  0.46388512    -0.09000
C1587       C  0.21232051  0.35131635  0.47149438    -0.03600
C1588       C  0.19934568  0.34868168  0.51053927     0.03300
N1589       N  0.15748232  0.34027490  0.52102245     0.65800
H1590       H  0.21700504  0.35398528  0.56980696     0.14700
H1591       H  0.26643237  0.35352582  0.43451371     0.14400
N1592       N  0.32718282  0.35681579  0.48501690     0.73500
O1593       O  0.14867310  0.30437734  0.53108722    -0.40000
O1594       O  0.13534187  0.36920687  0.53359680    -0.39900
O1595       O  0.35052919  0.32941505  0.49866870    -0.40600
O1596       O  0.34304941  0.38813559  0.47011820    -0.40700
C1597       C  0.46793318  0.76487214  0.63402705    -0.13000
C1598       C  0.48141843  0.72416117  0.63070415     0.04000
C1599       C  0.52463580  0.71659833  0.62811592    -0.08300
C1600       C  0.55265800  0.74913827  0.62893434    -0.09000
C1601       C  0.53906615  0.78982595  0.63143218    -0.03600
C1602       C  0.49589333  0.79742331  0.63417185     0.03300
N1603       N  0.47941547  0.83775508  0.63792139     0.65800
H1604       H  0.43510049  0.77184397  0.63601569     0.14700
H1605       H  0.58551032  0.74232105  0.62667947     0.14400
N1606       N  0.54118858  0.67631658  0.62459577     0.73500
O1607       O  0.46414081  0.85461741  0.60861213    -0.40000
O1608       O  0.46780146  0.84981223  0.67072056    -0.39900
O1609       O  0.55500757  0.66517222  0.59228137    -0.40600
O1610       O  0.55463394  0.65876439  0.65433364    -0.40700
C1611       C  0.15420530  0.99086392  0.26584032    -0.13000
C1612       C  0.11767305  0.01204860  0.27444706     0.04000
C1613       C  0.07962881  0.99926534  0.25916504    -0.08300
C1614       C  0.07890571  0.96632845  0.23438943    -0.09000
C1615       C  0.11552390  0.94605452  0.22447472    -0.03600
C1616       C  0.15348255  0.95773278  0.24091754     0.03300
N1617       N  0.19185867  0.93888215  0.23037035     0.65800
H1618       H  0.18342509  0.00039752  0.27811555     0.14700
H1619       H  0.04965638  0.95744700  0.22170328     0.14400
N1620       N  0.04168597  0.02038789  0.26680138     0.73500
O1621       O  0.21346373  0.95539246  0.20445976    -0.40000
O1622       O  0.20952825  0.91591509  0.25441580    -0.39900
O1623       O  0.02847902  0.04542709  0.24211957    -0.40600
O1624       O  0.01604091  0.00405329  0.28936431    -0.40700
C1625       C  0.50852843  0.79533189  0.08712885    -0.13000
C1626       C  0.49677355  0.80117417  0.12563193     0.04000
C1627       C  0.51731795  0.77911883  0.15459560    -0.08300
C1628       C  0.54910561  0.75205612  0.14471572    -0.09000
C1629       C  0.56015903  0.74537128  0.10623450    -0.03600
C1630       C  0.53947895  0.76718184  0.07712690     0.03300
N1631       N  0.54908226  0.76123902  0.03743549     0.65800
H1632       H  0.49263513  0.81173823  0.06447871     0.14700
H1633       H  0.56421227  0.73490765  0.16736977     0.14400
N1634       N  0.50631805  0.78328051  0.19414465     0.73500
O1635       O  0.52375008  0.74185749  0.01701164    -0.40000
O1636       O  0.57353409  0.78572332  0.02120708    -0.39900
O1637       O  0.48816464  0.75398106  0.21034612    -0.40600
O1638       O  0.52620880  0.80811159  0.21457464    -0.40700
C1639       C  0.81561635  0.65404855  0.48052584    -0.13000
C1640       C  0.80317371  0.64871579  0.51861926     0.04000
C1641       C  0.76208377  0.63748356  0.52721688    -0.08300
C1642       C  0.73438160  0.63133095  0.49755713    -0.09000
C1643       C  0.74640942  0.63698670  0.45930303    -0.03600
C1644       C  0.78738523  0.64904855  0.45078194     0.03300
N1645       N  0.80117011  0.65621745  0.41244554     0.65800
H1646       H  0.84723176  0.66272848  0.47386951     0.14700
H1647       H  0.70289792  0.62272032  0.50477736     0.14400
N1648       N  0.74806960  0.63059281  0.56565051     0.73500
O1649       O  0.80199228  0.69253296  0.40050272    -0.40000
O1650       O  0.82449451  0.62999162  0.39670027    -0.39900
O1651       O  0.72558734  0.65744231  0.58153155    -0.40600
O1652       O  0.74616945  0.59434667  0.57767074    -0.40700
C1653       C  0.76726118  0.17550157  0.49800081    -0.13000
C1654       C  0.78259913  0.13965986  0.48132854     0.04000
C1655       C  0.77396427  0.10170784  0.49835715    -0.08300
C1656       C  0.75128535  0.10025309  0.53237280    -0.09000
C1657       C  0.73530226  0.13588257  0.54901262    -0.03600
C1658       C  0.74276351  0.17387176  0.53124373     0.03300
N1659       N  0.72316399  0.21050101  0.54428637     0.65800
H1660       H  0.77367281  0.20473551  0.48478355     0.14700
H1661       H  0.74361729  0.07074631  0.54447115     0.14400
N1662       N  0.78415445  0.06421970  0.47945899     0.73500
O1663       O  0.74518967  0.23709269  0.56037615    -0.40000
O1664       O  0.69001280  0.22172112  0.52819527    -0.39900
O1665       O  0.81011690  0.04041646  0.49473209    -0.40600
O1666       O  0.75865674  0.04982697  0.45573590    -0.40700
C1667       C  0.00016874  0.22979843  0.10641114    -0.13000
C1668       C  0.99018241  0.21675173  0.14371926     0.04000
C1669       C  0.00494203  0.23950499  0.17522142    -0.08300
C1670       C  0.02860170  0.27435540  0.16899269    -0.09000
C1671       C  0.03893863  0.28728562  0.13190994    -0.03600
C1672       C  0.02415802  0.26480893  0.10020250     0.03300
N1673       N  0.03404808  0.27594361  0.06162904     0.65800
H1674       H  0.98855949  0.21318686  0.08180382     0.14700
H1675       H  0.03965396  0.29120572  0.19370118     0.14400
N1676       N  0.99735927  0.22752088  0.21396639     0.73500
O1677       O  0.06416223  0.25826916  0.04521885    -0.40000
O1678       O  0.00604556  0.29184072  0.04120427    -0.39900
O1679       O  0.02515295  0.20754029  0.23124865    -0.40600
O1680       O  0.97278865  0.24910112  0.23364977    -0.40700
loop_ 
_geom_bond_atom_site_label_1 
_geom_bond_atom_site_label_2 
_geom_bond_distance 
_geom_bond_site_symmetry_2 
_ccdc_geom_bond_type 
Zr1           O2   2.442       .  S
Zr1           O3   2.456       .  S
Zr1           O4   2.507   1_565  S
Zr1           O7   2.462   1_655  S
Zr1           O9   2.405   1_565  S
Zr1          O10   2.404       .  S
Zr1          O11   2.415   1_665  S
Zr1          O12   2.406   1_655  S
O2           H58   0.990       .  S
O2           H66   0.990   1_665  S
O3           C23   1.274       .  A
O4           C25   1.298       .  A
O5          Zr15   2.432       .  S
O5           C24   1.280       .  A
O6          Zr14   2.436       .  S
O6           C25   1.285       .  A
O7           C24   1.295       .  A
O8          Zr16   2.414   1_554  S
O8           C23   1.273       .  A
O9          Zr14   2.408       .  S
O9          Zr16   2.378   1_544  S
O10         Zr15   2.394   1_655  S
O10         Zr16   2.371   1_554  S
O10          H45   0.966       .  S
O11         Zr14   2.418   1_455  S
O11         Zr31   2.360       .  S
O11          H48   0.961       .  S
O12         Zr15   2.400       .  S
O12         Zr31   2.382   1_565  S
Zr13         O38   2.441       .  S
Zr13         O32   2.485       .  S
Zr13         O40   2.470   1_545  S
Zr13         O28   2.462   1_455  S
Zr13         O19   2.418   1_545  S
Zr13         O20   2.421   1_455  S
Zr13         O21   2.385       .  S
Zr13         O22   2.391       .  S
Zr14         O33   2.437   1_554  S
Zr14         O26   2.434       .  S
Zr14         O27   2.468   1_554  S
Zr14         O20   2.403   1_554  S
Zr14         O21   2.403   1_654  S
Zr15         O17   2.435       .  S
Zr15         O39   2.438   1_554  S
Zr15         O41   2.418   1_554  S
Zr15         O19   2.401   1_554  S
Zr15         O22   2.395   1_564  S
Zr16         O42   2.436       .  S
Zr16         O43   2.433       .  S
Zr16         O18   2.437       .  S
Zr16         O19   2.405   1_655  S
Zr16         O20   2.378   1_565  S
O17          H54   0.990       .  S
O18          H49   0.990       .  S
O18          H63   0.990       .  S
O20          H46   0.964       .  S
O21         Zr31   2.385   1_556  S
O22         Zr31   2.371   1_556  S
O22          H47   0.973   1_545  S
C23         C763   1.477       .  S
C24         C253   1.482       .  S
C25          C73   1.484       .  S
O26          H62   0.990       .  S
O27          C29   1.288       .  A
O28          C29   1.293       .  A
C29        C1115   1.493       .  S
O30         Zr31   2.435       .  S
O30          H59   0.990       .  S
Zr31         O34   2.437       .  S
Zr31         O35   2.440       .  S
Zr31         O36   2.371   1_554  S
O32          C37   1.287       .  A
O33          H50   0.990       .  S
O33          H65   0.990   1_556  S
O34          H51   0.990       .  S
O35          H55   0.990       .  S
O35          H64   0.990       .  S
O36          C37   1.275       .  A
C37         C579   1.484       .  S
O38          H57   0.990       .  S
O38          H61   0.991   1_445  S
O39          H53   0.990       .  S
O39          H60   0.990   1_556  S
O40          C44   1.289       .  A
O41          C44   1.279       .  A
O42          H52   0.990       .  S
O43          H56   0.990       .  S
C44        C1101   1.468       .  S
C67        C1217   1.471       .  S
C67          N68   1.370       .  A
C67          N72   1.365       .  A
N68          C69   1.367       .  A
C69         C347   1.469       .  S
C69          N70   1.351       .  A
N70          C71   1.351       .  A
C71        C1671   1.480       .  S
C71          N72   1.355       .  A
C73          N74   1.370       .  A
C73          N78   1.363       .  A
N74          C75   1.372       .  A
C75         C134   1.477       .  S
C75          N76   1.356       .  A
N76          C77   1.350       .  A
C77        C1668   1.482       .  S
C77          N78   1.359       .  A
C79         C127   1.478       .  S
C79          N80   1.362       .  A
C79          N84   1.376       .  A
N80          C81   1.348       .  A
C81        C1654   1.458       .  S
C81          N82   1.338       .  A
N82          C83   1.347       .  A
C83         C955   1.464       .  S
C83          N84   1.372       .  A
C85        C1056   1.472       .  S
C85          N86   1.363       .  A
C85          N90   1.378       .  A
N86          C87   1.351       .  A
C87        C1657   1.460       .  S
C87          N88   1.340       .  A
N88          C89   1.348       .  A
C89         C425   1.480       .  S
C89          N90   1.371       .  A
Zr91         O92   2.440       .  S
Zr91         O93   2.459       .  S
Zr91         O94   2.478       .  S
Zr91         O97   2.462       .  S
Zr91         O99   2.385       .  S
Zr91        O100   2.392       .  S
Zr91        O101   2.419       .  S
Zr91        O102   2.411       .  S
O92         H148   0.990       .  S
O92         H156   0.991       .  S
O93         C113   1.285       .  A
O94         C115   1.294       .  A
O95        Zr105   2.435       .  S
O95         C114   1.284       .  A
O96        Zr104   2.428       .  S
O96         C115   1.280       .  A
O97         C114   1.290       .  A
O98        Zr106   2.422       .  S
O98         C113   1.282       .  A
O99        Zr104   2.414       .  S
O99        Zr106   2.385       .  S
O100       Zr105   2.394       .  S
O100       Zr106   2.376       .  S
O100        H135   0.965       .  S
O101       Zr104   2.405       .  S
O101       Zr121   2.391       .  S
O101        H138   0.964       .  S
O102       Zr105   2.391       .  S
O102       Zr121   2.387       .  S
Zr103       O128   2.425       .  S
Zr103       O122   2.461       .  S
Zr103       O130   2.448       .  S
Zr103       O118   2.462       .  S
Zr103       O109   2.410       .  S
Zr103       O110   2.420       .  S
Zr103       O111   2.375       .  S
Zr103       O112   2.385       .  S
Zr104       O123   2.436       .  S
Zr104       O116   2.436       .  S
Zr104       O117   2.436       .  S
Zr104       O110   2.402       .  S
Zr104       O111   2.396       .  S
Zr105       O107   2.436       .  S
Zr105       O129   2.439       .  S
Zr105       O131   2.438       .  S
Zr105       O109   2.392       .  S
Zr105       O112   2.400       .  S
Zr106       O132   2.436       .  S
Zr106       O133   2.436       .  S
Zr106       O108   2.437       .  S
Zr106       O109   2.397       .  S
Zr106       O110   2.395       .  S
O107        H144   0.990       .  S
O108        H139   0.990       .  S
O108        H153   0.990       .  S
O110        H136   0.970       .  S
O111       Zr121   2.380       .  S
O112       Zr121   2.378       .  S
O112        H137   0.968       .  S
C113       C1021   1.476       .  S
C114        C739   1.468       .  S
C115        C485   1.481       .  S
O116        H152   0.990       .  S
O117        C119   1.282       .  A
O118        C119   1.287       .  A
C119        C727   1.468       .  S
O120       Zr121   2.440       .  S
O120        H149   0.990       .  S
Zr121       O124   2.438       .  S
Zr121       O125   2.440       .  S
Zr121       O126   2.412       .  S
O122        C127   1.285       .  A
O123        H140   0.990       .  S
O123        H155   0.990       .  S
O124        H141   0.990       .  S
O125        H145   0.990       .  S
O125        H154   0.990       .  S
O126        C127   1.281       .  A
O128        H147   0.989       .  S
O128        H151   0.990       .  S
O129        H143   0.990       .  S
O129        H150   0.990       .  S
O130        C134   1.289       .  A
O131        C134   1.283       .  A
O132        H142   0.990       .  S
O133        H146   0.990       .  S
C157       C1146   1.462       .  S
C157        N158   1.374       .  A
C157        N162   1.348       .  A
N158        C159   1.371       .  A
C159        C197   1.465       .  S
C159        N160   1.352       .  A
N160        C161   1.345       .  A
C161       C1640   1.450       .  S
C161        N162   1.340       .  A
C163        C541   1.481       .  S
C163        N164   1.353       .  A
C163        N168   1.373       .  A
N164        C165   1.346       .  A
C165       C1643   1.461       .  S
C165        N166   1.339       .  A
N166        C167   1.352       .  A
C167        C798   1.463       .  S
C167        N168   1.377       .  A
Zr169       O170   2.437       .  S
Zr169       O171   2.465       .  S
Zr169       O172   2.482       .  S
Zr169       O175   2.476   1_655  S
Zr169       O177   2.386       .  S
Zr169       O178   2.394       .  S
Zr169       O179   2.418   1_655  S
Zr169       O180   2.402   1_655  S
O170        H226   0.990       .  S
O170        H234   0.987   1_655  S
O171        C191   1.286       .  A
O172        C193   1.295       .  A
O173       Zr183   2.435       .  S
O173        C192   1.282       .  A
O174       Zr182   2.427       .  S
O174        C193   1.280       .  A
O175        C192   1.293       .  A
O176       Zr184   2.418       .  S
O176        C191   1.282       .  A
O177       Zr182   2.411       .  S
O177       Zr184   2.377       .  S
O178       Zr183   2.393   1_655  S
O178       Zr184   2.372       .  S
O178        H213   0.965       .  S
O179       Zr182   2.407   1_455  S
O179       Zr199   2.399       .  S
O179        H216   0.965       .  S
O180       Zr183   2.396       .  S
O180       Zr199   2.379       .  S
Zr181       O206   2.440       .  S
Zr181       O200   2.474       .  S
Zr181       O208   2.442       .  S
Zr181       O196   2.451   1_455  S
Zr181       O187   2.417       .  S
Zr181       O188   2.427   1_455  S
Zr181       O189   2.377       .  S
Zr181       O190   2.385       .  S
Zr182       O201   2.437       .  S
Zr182       O194   2.436       .  S
Zr182       O195   2.446       .  S
Zr182       O188   2.398       .  S
Zr182       O189   2.396   1_655  S
Zr183       O185   2.436       .  S
Zr183       O207   2.436       .  S
Zr183       O209   2.444       .  S
Zr183       O187   2.394       .  S
Zr183       O190   2.390       .  S
Zr184       O210   2.435       .  S
Zr184       O211   2.435       .  S
Zr184       O186   2.438       .  S
Zr184       O187   2.401   1_655  S
Zr184       O188   2.384       .  S
O185        H222   0.990       .  S
O186        H217   0.990       .  S
O186        H231   0.990       .  S
O188        H214   0.964       .  S
O189       Zr199   2.381       .  S
O190       Zr199   2.387       .  S
O190        H215   0.969       .  S
C191        C729   1.474       .  S
C192        C477   1.474       .  S
C193       C1015   1.481       .  S
O194        H230   0.990       .  S
O195        C197   1.284       .  A
O196        C197   1.287       .  A
O198       Zr199   2.436       .  S
O198        H227   0.991       .  S
Zr199       O202   2.439       .  S
Zr199       O203   2.441       .  S
Zr199       O204   2.402       .  S
O200        C205   1.286       .  A
O201        H218   0.990       .  S
O201        H233   0.990       .  S
O202        H219   0.990       .  S
O203        H223   0.990       .  S
O203        H232   0.990       .  S
O204        C205   1.274       .  A
C205        C589   1.466       .  S
O206        H225   0.991   1_455  S
O206        H229   0.990       .  S
O207        H221   0.990       .  S
O207        H228   0.989       .  S
O208        C212   1.287       .  A
O209        C212   1.285       .  A
O210        H220   0.990       .  S
O211        H224   0.990       .  S
C212        C755   1.477       .  S
C235        C283   1.470       .  S
C235        N236   1.370       .  A
C235        N240   1.359       .  A
N236        C237   1.365       .  A
C237        C704   1.461       .  S
C237        N238   1.351       .  A
N238        C239   1.349       .  A
C239       C1626   1.468       .  S
C239        N240   1.352       .  A
C241        C881   1.492       .  S
C241        N242   1.359       .  A
C241        N246   1.381       .  A
N242        C243   1.350       .  A
C243       C1629   1.467       .  S
C243        N244   1.349       .  A
N244        C245   1.352       .  A
C245        C818   1.484       .  S
C245        N246   1.378       .  A
C247        C368   1.473       .  S
C247        N248   1.374       .  A
C247        N252   1.354       .  A
N248        C249   1.371       .  A
C249        C962   1.463       .  S
C249        N250   1.345       .  A
N250        C251   1.339       .  A
C251       C1612   1.443       .  S
C251        N252   1.348       .  A
C253        N254   1.379       .  A
C253        N258   1.347       .  A
N254        C255   1.380       .  A
C255        C287   1.466       .  S
C255        N256   1.350       .  A
N256        C257   1.339       .  A
C257       C1615   1.445       .  S
C257        N258   1.342       .  A
Zr259       O260   2.433       .  S
Zr259       O261   2.427       .  S
Zr259       O262   2.447       .  S
Zr259       O265   2.442       .  S
Zr259       O267   2.394       .  S
Zr259       O268   2.404       .  S
Zr259       O269   2.413       .  S
Zr259       O270   2.397       .  S
O260        H316   0.990       .  S
O260        H324   0.989       .  S
O261        C281   1.273       .  A
O262        C283   1.286       .  A
O263       Zr273   2.455       .  S
O263        C282   1.287       .  A
O264       Zr272   2.428       .  S
O264        C283   1.281       .  A
O265        C282   1.286       .  A
O266       Zr274   2.428       .  S
O266        C281   1.274       .  A
O267       Zr272   2.400       .  S
O267       Zr274   2.385       .  S
O268       Zr273   2.400       .  S
O268       Zr274   2.380       .  S
O268        H303   0.966       .  S
O269       Zr272   2.414       .  S
O269       Zr289   2.410       .  S
O269        H306   0.966       .  S
O270       Zr273   2.391       .  S
O270       Zr289   2.383       .  S
Zr271       O296   2.440       .  S
Zr271       O290   2.446       .  S
Zr271       O298   2.433       .  S
Zr271       O286   2.461       .  S
Zr271       O277   2.416       .  S
Zr271       O278   2.425       .  S
Zr271       O279   2.375       .  S
Zr271       O280   2.400       .  S
Zr272       O291   2.437       .  S
Zr272       O284   2.430       .  S
Zr272       O285   2.443       .  S
Zr272       O278   2.402       .  S
Zr272       O279   2.400       .  S
Zr273       O275   2.436       .  S
Zr273       O297   2.439       .  S
Zr273       O299   2.440       .  S
Zr273       O277   2.401       .  S
Zr273       O280   2.405       .  S
Zr274       O300   2.438       .  S
Zr274       O301   2.439       .  S
Zr274       O276   2.446       .  S
Zr274       O277   2.384       .  S
Zr274       O278   2.397       .  S
O275        H312   0.990       .  S
O276        H307   0.990       .  S
O276        H321   0.989       .  S
O278        H304   0.962       .  S
O279       Zr289   2.376       .  S
O280       Zr289   2.391       .  S
O280        H305   0.968       .  S
C281        C989   1.456       .  S
C282        C845   1.469       .  S
O284        H320   0.990       .  S
O285        C287   1.282       .  A
O286        C287   1.290       .  A
O288       Zr289   2.438       .  S
O288        H317   0.990       .  S
Zr289       O292   2.432       .  S
Zr289       O293   2.442       .  S
Zr289       O294   2.428       .  S
O290        C295   1.279       .  A
O291        H308   0.990       .  S
O291        H323   0.990       .  S
O292        H309   0.990       .  S
O293        H313   0.990       .  S
O293        H322   0.990       .  S
O294        C295   1.273       .  A
C295       C1269   1.461       .  S
O296        H315   0.990       .  S
O296        H319   0.990       .  S
O297        H311   0.990       .  S
O297        H318   0.990       .  S
O298        C302   1.286       .  A
O299        C302   1.284       .  A
O300        H310   0.990       .  S
O301        H314   0.990       .  S
C302        C751   1.467       .  S
Zr325       O326   2.432       .  S
Zr325       O327   2.462       .  S
Zr325       O328   2.491       .  S
Zr325       O331   2.504       .  S
Zr325       O333   2.399       .  S
Zr325       O334   2.414       .  S
Zr325       O335   2.420       .  S
Zr325       O336   2.403       .  S
O326        H382   0.990       .  S
O326        H390   0.989       .  S
O327        C347   1.280       .  A
O328        C349   1.297       .  A
O329       Zr339   2.420       .  S
O329        C348   1.276       .  A
O330       Zr338   2.404       .  S
O330        C349   1.276       .  A
O331        C348   1.297       .  A
O332       Zr340   2.420       .  S
O332        C347   1.271       .  A
O333       Zr338   2.388       .  S
O333       Zr340   2.381       .  S
O334       Zr339   2.394       .  S
O334       Zr340   2.373       .  S
O334        H369   0.970       .  S
O335       Zr338   2.406       .  S
O335       Zr355   2.400       .  S
O335        H372   0.962       .  S
O336       Zr339   2.392       .  S
O336       Zr355   2.378       .  S
Zr337       O362   2.439       .  S
Zr337       O356   2.500       .  S
Zr337       O364   2.461       .  S
Zr337       O352   2.496       .  S
Zr337       O343   2.433       .  S
Zr337       O344   2.429       .  S
Zr337       O345   2.382       .  S
Zr337       O346   2.392       .  S
Zr338       O357   2.435       .  S
Zr338       O350   2.435       .  S
Zr338       O351   2.422       .  S
Zr338       O344   2.387       .  S
Zr338       O345   2.395       .  S
Zr339       O341   2.436       .  S
Zr339       O363   2.438       .  S
Zr339       O365   2.418       .  S
Zr339       O343   2.398       .  S
Zr339       O346   2.392       .  S
Zr340       O366   2.429       .  S
Zr340       O367   2.440       .  S
Zr340       O342   2.443       .  S
Zr340       O343   2.400       .  S
Zr340       O344   2.366       .  S
O341        H378   0.990       .  S
O342        H373   0.989       .  S
O342        H387   0.990       .  S
O344        H370   0.960       .  S
O345       Zr355   2.389       .  S
O346       Zr355   2.378       .  S
O346        H371   0.966       .  S
C348        C475   1.482       .  S
C349        C847   1.476       .  S
O350        H386   0.990       .  S
O351        C353   1.280       .  A
O352        C353   1.296       .  A
C353        C571   1.473       .  S
O354       Zr355   2.440       .  S
O354        H383   0.990       .  S
Zr355       O358   2.434       .  S
Zr355       O359   2.441       .  S
Zr355       O360   2.406       .  S
O356        C361   1.292       .  A
O357        H374   0.990       .  S
O357        H389   0.990       .  S
O358        H375   0.990       .  S
O359        H379   0.990       .  S
O359        H388   0.990       .  S
O360        C361   1.272       .  A
C361        C491   1.477       .  S
O362        H381   0.990       .  S
O362        H385   0.990       .  S
O363        H377   0.990       .  S
O363        H384   0.990       .  S
O364        C368   1.292       .  A
O365        C368   1.280       .  A
O366        H376   0.990       .  S
O367        H380   0.990       .  S
C391       C1147   1.467       .  S
C391        N392   1.361       .  A
C391        N396   1.361       .  A
N392        C393   1.363       .  A
C393        C427   1.460       .  S
C393        N394   1.361       .  A
N394        C395   1.355       .  A
C395       C1601   1.494       .  S
C395        N396   1.359       .  A
C397        C529   1.470       .  S
C397        N398   1.367       .  A
C397        N402   1.364       .  A
N398        C399   1.365       .  A
C399       C1303   1.473       .  S
C399        N400   1.358       .  A
N400        C401   1.357       .  A
C401       C1598   1.497       .  S
C401        N402   1.357       .  A
Zr403       O404   2.440       .  S
Zr403       O405   2.461       .  S
Zr403       O406   2.471   1_545  S
Zr403       O409   2.455       .  S
Zr403       O411   2.386       .  S
Zr403       O412   2.393       .  S
Zr403       O413   2.422   1_545  S
Zr403       O414   2.405       .  S
O404        H460   0.990       .  S
O404        H468   0.990       .  S
O405        C425   1.282       .  A
O406        C427   1.290       .  A
O407       Zr417   2.435       .  S
O407        C426   1.282       .  A
O408       Zr416   2.417       .  S
O408        C427   1.279       .  A
O409        C426   1.291       .  A
O410       Zr418   2.403       .  S
O410        C425   1.281       .  A
O411       Zr416   2.401   1_545  S
O411       Zr418   2.375       .  S
O412       Zr417   2.407       .  S
O412       Zr418   2.368       .  S
O412        H447   0.966       .  S
O413       Zr416   2.406       .  S
O413       Zr433   2.377       .  S
O413        H450   0.965       .  S
O414       Zr417   2.399       .  S
O414       Zr433   2.383   1_545  S
Zr415       O440   2.442   1_565  S
Zr415       O434   2.455       .  S
Zr415       O442   2.447   1_565  S
Zr415       O430   2.448       .  S
Zr415       O421   2.409   1_565  S
Zr415       O422   2.417   1_565  S
Zr415       O423   2.375       .  S
Zr415       O424   2.388   1_565  S
Zr416       O435   2.436       .  S
Zr416       O428   2.435       .  S
Zr416       O429   2.437       .  S
Zr416       O422   2.401   1_565  S
Zr416       O423   2.402       .  S
Zr417       O419   2.434       .  S
Zr417       O441   2.439       .  S
Zr417       O443   2.444       .  S
Zr417       O421   2.385       .  S
Zr417       O424   2.402       .  S
Zr418       O444   2.436       .  S
Zr418       O445   2.427       .  S
Zr418       O420   2.438       .  S
Zr418       O421   2.387       .  S
Zr418       O422   2.389       .  S
O419        H456   0.990       .  S
O420        H451   0.991       .  S
O420        H465   0.990       .  S
O422        H448   0.964       .  S
O423       Zr433   2.384       .  S
O424       Zr433   2.377   1_545  S
O424        H449   0.965       .  S
C426       C1255   1.475       .  S
O428        H464   0.990       .  S
O429        C431   1.280       .  A
O430        C431   1.288       .  A
C431        C749   1.472       .  S
O432       Zr433   2.439       .  S
O432        H461   0.991       .  S
Zr433       O436   2.437       .  S
Zr433       O437   2.440       .  S
Zr433       O438   2.394       .  S
O434        C439   1.283       .  A
O435        H452   0.990       .  S
O435        H467   0.990       .  S
O436        H453   0.990       .  S
O437        H457   0.989       .  S
O437        H466   0.990       .  S
O438        C439   1.278       .  A
C439        C985   1.468       .  S
O440        H459   0.990       .  S
O440        H463   0.990   1_545  S
O441        H455   0.990       .  S
O441        H462   0.990       .  S
O442        C446   1.286       .  A
O443        C446   1.287       .  A
O444        H454   0.990       .  S
O445        H458   0.990       .  S
C446        C487   1.470       .  S
C469        C618   1.480       .  S
C469        N470   1.365       .  A
C469        N474   1.378       .  A
N470        C471   1.355       .  A
C471       C1584   1.486       .  S
C471        N472   1.345       .  A
N472        C473   1.353       .  A
C473        C527   1.489       .  S
C473        N474   1.373       .  A
C475        N476   1.365       .  A
C475        N480   1.365       .  A
N476        C477   1.365       .  A
C477        N478   1.358       .  A
N478        C479   1.357       .  A
C479       C1587   1.498       .  S
C479        N480   1.367       .  A
C481        C548   1.478       .  S
C481        N482   1.361       .  A
C481        N486   1.374       .  A
N482        C483   1.353       .  A
C483       C1570   1.472       .  S
C483        N484   1.349       .  A
N484        C485   1.350       .  A
C485        N486   1.373       .  A
C487        N488   1.359       .  A
C487        N492   1.375       .  A
N488        C489   1.350       .  A
C489       C1573   1.473       .  S
C489        N490   1.350       .  A
N490        C491   1.354       .  A
C491        N492   1.371       .  A
C493        C889   1.461       .  S
C493        N494   1.356       .  A
C493        N498   1.370       .  A
N494        C495   1.345       .  A
C495       C1556   1.451       .  S
C495        N496   1.339       .  A
N496        C497   1.349       .  A
C497       C1159   1.455       .  S
C497        N498   1.369       .  A
C499        C528   1.490       .  S
C499        N500   1.360       .  A
C499        N504   1.381       .  A
N500        C501   1.349       .  A
C501       C1559   1.461       .  S
C501        N502   1.346       .  A
N502        C503   1.347       .  A
C503       C1076   1.486       .  S
C503        N504   1.378       .  A
Zr505       O506   2.434       .  S
Zr505       O507   2.479       .  S
Zr505       O508   2.490       .  S
Zr505       O511   2.476       .  S
Zr505       O513   2.390       .  S
Zr505       O514   2.393       .  S
Zr505       O515   2.422       .  S
Zr505       O516   2.403       .  S
O506        H562   0.990       .  S
O506        H570   0.990       .  S
O507        C527   1.286       .  A
O508        C529   1.293       .  A
O509       Zr519   2.450       .  S
O509        C528   1.286       .  A
O510       Zr518   2.417       .  S
O510        C529   1.280       .  A
O511        C528   1.296       .  A
O512       Zr520   2.401       .  S
O512        C527   1.280       .  A
O513       Zr518   2.404       .  S
O513       Zr520   2.376       .  S
O514       Zr519   2.409       .  S
O514       Zr520   2.377       .  S
O514        H549   0.966       .  S
O515       Zr518   2.407       .  S
O515       Zr535   2.380       .  S
O515        H552   0.965       .  S
O516       Zr519   2.393       .  S
O516       Zr535   2.382       .  S
Zr517       O542   2.438       .  S
Zr517       O536   2.475       .  S
Zr517       O544   2.460       .  S
Zr517       O532   2.446       .  S
Zr517       O523   2.409       .  S
Zr517       O524   2.420       .  S
Zr517       O525   2.375       .  S
Zr517       O526   2.390       .  S
Zr518       O537   2.436       .  S
Zr518       O530   2.436       .  S
Zr518       O531   2.438       .  S
Zr518       O524   2.402       .  S
Zr518       O525   2.398       .  S
Zr519       O521   2.435       .  S
Zr519       O543   2.439       .  S
Zr519       O545   2.449       .  S
Zr519       O523   2.387       .  S
Zr519       O526   2.407       .  S
Zr520       O546   2.434       .  S
Zr520       O547   2.434       .  S
Zr520       O522   2.441       .  S
Zr520       O523   2.387       .  S
Zr520       O524   2.389       .  S
O521        H558   0.990       .  S
O522        H553   0.990       .  S
O522        H567   0.989       .  S
O524        H550   0.961       .  S
O525       Zr535   2.374       .  S
O526       Zr535   2.380       .  S
O526        H551   0.964       .  S
O530        H566   0.990       .  S
O531        C533   1.283       .  A
O532        C533   1.287       .  A
C533        C841   1.474       .  S
O534       Zr535   2.440       .  S
O534        H563   0.990       .  S
Zr535       O538   2.434       .  S
Zr535       O539   2.438       .  S
Zr535       O540   2.395       .  S
O536        C541   1.286       .  A
O537        H554   0.990       .  S
O537        H569   0.990       .  S
O538        H555   0.990       .  S
O539        H559   0.990       .  S
O539        H568   0.990       .  S
O540        C541   1.278       .  A
O542        H561   0.991       .  S
O542        H565   0.990       .  S
O543        H557   0.990       .  S
O543        H564   0.990       .  S
O544        C548   1.287       .  A
O545        C548   1.289       .  A
O546        H556   0.990       .  S
O547        H560   0.990       .  S
C571        N572   1.366       .  A
C571        N576   1.373       .  A
N572        C573   1.362       .  A
C573        C697   1.457       .  S
C573        N574   1.350       .  A
N574        C575   1.337       .  A
C575       C1545   1.489       .  S
C575        N576   1.364       .  A
C577        C623   1.483       .  S
C577        N578   1.379       .  A
C577        N582   1.370       .  A
N578        C579   1.372       .  A
C579        N580   1.354       .  A
N580        C581   1.337       .  A
C581       C1542   1.490       .  S
C581        N582   1.357       .  A
C583       C1213   1.484       .  S
C583        N584   1.363       .  A
C583        N588   1.376       .  A
N584        C585   1.354       .  A
C585       C1528   1.470       .  S
C585        N586   1.347       .  A
N586        C587   1.346       .  A
C587        C619   1.479       .  S
C587        N588   1.372       .  A
C589        N590   1.372       .  A
C589        N594   1.355       .  A
N590        C591   1.373       .  A
C591       C1301   1.462       .  S
C591        N592   1.353       .  A
N592        C593   1.341       .  A
C593       C1531   1.458       .  S
C593        N594   1.343       .  A
Zr595       O596   2.440       .  S
Zr595       O597   2.485       .  S
Zr595       O598   2.478       .  S
Zr595       O601   2.498       .  S
Zr595       O603   2.395       .  S
Zr595       O604   2.413       .  S
Zr595       O605   2.430       .  S
Zr595       O606   2.402       .  S
O596        H652   0.990       .  S
O596        H660   0.991       .  S
O597        C617   1.284       .  A
O598        C619   1.295       .  A
O599       Zr609   2.434       .  S
O599        C618   1.283       .  A
O600       Zr608   2.425       .  S
O600        C619   1.279       .  A
O601        C618   1.297       .  A
O602       Zr610   2.418       .  S
O602        C617   1.270       .  A
O603       Zr608   2.395       .  S
O603       Zr610   2.382       .  S
O604       Zr609   2.401       .  S
O604       Zr610   2.387       .  S
O604        H639   0.957       .  S
O605       Zr608   2.405       .  S
O605       Zr625   2.402       .  S
O605        H642   0.963       .  S
O606       Zr609   2.379       .  S
O606       Zr625   2.375       .  S
Zr607       O632   2.439       .  S
Zr607       O626   2.481       .  S
Zr607       O634   2.465       .  S
Zr607       O622   2.503       .  S
Zr607       O613   2.425       .  S
Zr607       O614   2.429       .  S
Zr607       O615   2.385       .  S
Zr607       O616   2.395       .  S
Zr608       O627   2.437       .  S
Zr608       O620   2.435       .  S
Zr608       O621   2.434       .  S
Zr608       O614   2.397       .  S
Zr608       O615   2.397       .  S
Zr609       O611   2.437       .  S
Zr609       O633   2.437       .  S
Zr609       O635   2.426       .  S
Zr609       O613   2.401       .  S
Zr609       O616   2.403       .  S
Zr610       O636   2.431       .  S
Zr610       O637   2.437       .  S
Zr610       O612   2.441       .  S
Zr610       O613   2.402       .  S
Zr610       O614   2.373       .  S
O611        H648   0.991       .  S
O612        H643   0.990       .  S
O612        H657   0.990       .  S
O614        H640   0.961       .  S
O615       Zr625   2.383       .  S
O616       Zr625   2.373       .  S
O616        H641   0.968       .  S
C617        C999   1.481       .  S
O620        H656   0.990       .  S
O621        C623   1.282       .  A
O622        C623   1.297       .  A
O624       Zr625   2.441       .  S
O624        H653   0.991       .  S
Zr625       O628   2.437       .  S
Zr625       O629   2.441       .  S
Zr625       O630   2.411       .  S
O626        C631   1.289       .  A
O627        H644   0.990       .  S
O627        H659   0.990       .  S
O628        H645   0.990       .  S
O629        H649   0.990       .  S
O629        H658   0.990       .  S
O630        C631   1.279       .  A
C631       C1009   1.477       .  S
O632        H651   0.990       .  S
O632        H655   0.990       .  S
O633        H647   0.990       .  S
O633        H654   0.990       .  S
O634        C638   1.294       .  A
O635        C638   1.279       .  A
O636        H646   0.990       .  S
O637        H650   0.990       .  S
C638       C1259   1.478       .  S
Zr661       O662   2.440       .  S
Zr661       O663   2.461       .  S
Zr661       O664   2.479   1_565  S
Zr661       O667   2.450       .  S
Zr661       O669   2.390       .  S
Zr661       O670   2.393       .  S
Zr661       O671   2.422   1_565  S
Zr661       O672   2.405       .  S
O662        H718   0.990       .  S
O662        H726   0.990       .  S
O663        C683   1.284       .  A
O664        C685   1.292       .  A
O665       Zr675   2.416   1_556  S
O665        C684   1.278       .  A
O666       Zr674   2.437   1_556  S
O666        C685   1.283       .  A
O667        C684   1.290       .  A
O668       Zr676   2.395   1_556  S
O668        C683   1.279       .  A
O669       Zr674   2.404   1_566  S
O669       Zr676   2.379   1_556  S
O670       Zr675   2.402   1_556  S
O670       Zr676   2.376   1_556  S
O670        H705   0.962       .  S
O671       Zr674   2.404   1_556  S
O671       Zr691   2.368       .  S
O671        H708   0.962       .  S
O672       Zr675   2.394   1_556  S
O672       Zr691   2.379   1_565  S
Zr673       O698   2.442       .  S
Zr673       O692   2.435       .  S
Zr673       O700   2.452   1_545  S
Zr673       O688   2.437       .  S
Zr673       O679   2.400   1_545  S
Zr673       O680   2.418       .  S
Zr673       O681   2.385       .  S
Zr673       O682   2.386       .  S
Zr674       O693   2.435   1_554  S
Zr674       O686   2.435       .  S
Zr674       O687   2.442       .  S
Zr674       O680   2.405       .  S
Zr674       O681   2.401       .  S
Zr675       O677   2.435   1_554  S
Zr675       O699   2.436       .  S
Zr675       O701   2.429       .  S
Zr675       O679   2.388       .  S
Zr675       O682   2.392   1_565  S
Zr676       O702   2.434       .  S
Zr676       O703   2.435       .  S
Zr676       O678   2.437       .  S
Zr676       O679   2.384       .  S
Zr676       O680   2.388   1_565  S
O677        H714   0.990       .  S
O678        H709   0.990       .  S
O678        H723   0.990       .  S
O680        H706   0.961       .  S
O681       Zr691   2.377   1_554  S
O682       Zr691   2.372   1_554  S
O682        H707   0.961       .  S
C683        C773   1.474       .  S
C684       C1261   1.465       .  S
C685       C1007   1.473       .  S
O686        H722   0.990       .  S
O687        C689   1.282       .  A
O688        C689   1.287       .  A
C689        C743   1.471       .  S
O690       Zr691   2.434       .  S
O690        H719   0.990       .  S
Zr691       O694   2.437       .  S
Zr691       O695   2.439       .  S
Zr691       O696   2.378   1_556  S
O692        C697   1.279       .  A
O693        H710   0.990       .  S
O693        H725   0.989       .  S
O694        H711   0.990       .  S
O695        H715   0.990       .  S
O695        H724   0.990       .  S
O696        C697   1.276       .  A
O698        H717   0.989       .  S
O698        H721   0.990       .  S
O699        H713   0.990       .  S
O699        H720   0.990   1_554  S
O700        C704   1.287       .  A
O701        C704   1.278       .  A
O702        H712   0.991       .  S
O703        H716   0.991       .  S
C727        N728   1.374       .  A
C727        N732   1.354       .  A
N728        C729   1.373       .  A
C729        N730   1.357       .  A
N730        C731   1.345       .  A
C731       C1514   1.464       .  S
C731        N732   1.347       .  A
C733        C811   1.467       .  S
C733        N734   1.368       .  A
C733        N738   1.359       .  A
N734        C735   1.368       .  A
C735       C1232   1.464       .  S
C735        N736   1.354       .  A
N736        C737   1.346       .  A
C737       C1517   1.463       .  S
C737        N738   1.347       .  A
C739        N740   1.354       .  A
C739        N744   1.375       .  A
N740        C741   1.348       .  A
C741       C1503   1.463       .  S
C741        N742   1.341       .  A
N742        C743   1.351       .  A
C743        N744   1.374       .  A
C745        C797   1.485       .  S
C745        N746   1.357       .  A
C745        N750   1.376       .  A
N746        C747   1.348       .  A
C747       C1500   1.464       .  S
C747        N748   1.340       .  A
N748        C749   1.352       .  A
C749        N750   1.377       .  A
C751        N752   1.357       .  A
C751        N756   1.369       .  A
N752        C753   1.349       .  A
C753       C1486   1.480       .  S
C753        N754   1.354       .  A
N754        C755   1.355       .  A
C755        N756   1.367       .  A
C757        C799   1.477       .  S
C757        N758   1.357       .  A
C757        N762   1.377       .  A
N758        C759   1.350       .  A
C759       C1489   1.470       .  S
C759        N760   1.351       .  A
N760        C761   1.354       .  A
C761        C947   1.480       .  S
C761        N762   1.375       .  A
C763        N764   1.375       .  A
C763        N768   1.351       .  A
N764        C765   1.378       .  A
C765        C803   1.466       .  S
C765        N766   1.350       .  A
N766        C767   1.336       .  A
C767       C1472   1.445       .  S
C767        N768   1.342       .  A
C769       C1151   1.458       .  S
C769        N770   1.350       .  A
C769        N774   1.375       .  A
N770        C771   1.333       .  A
C771       C1475   1.450       .  S
C771        N772   1.342       .  A
N772        C773   1.354       .  A
C773        N774   1.374       .  A
Zr775       O776   2.440       .  S
Zr775       O777   2.466       .  S
Zr775       O778   2.479       .  S
Zr775       O781   2.457       .  S
Zr775       O783   2.387       .  S
Zr775       O784   2.394       .  S
Zr775       O785   2.425       .  S
Zr775       O786   2.403       .  S
O776        H832   0.990       .  S
O776        H840   0.990       .  S
O777        C797   1.285       .  A
O778        C799   1.290       .  A
O779       Zr789   2.417       .  S
O779        C798   1.278       .  A
O780       Zr788   2.436       .  S
O780        C799   1.279       .  A
O781        C798   1.293       .  A
O782       Zr790   2.418       .  S
O782        C797   1.283       .  A
O783       Zr788   2.400       .  S
O783       Zr790   2.376       .  S
O784       Zr789   2.410       .  S
O784       Zr790   2.372       .  S
O784        H819   0.969       .  S
O785       Zr788   2.397       .  S
O785       Zr805   2.392       .  S
O785        H822   0.971       .  S
O786       Zr789   2.404       .  S
O786       Zr805   2.385       .  S
Zr787       O812   2.441       .  S
Zr787       O806   2.463       .  S
Zr787       O814   2.480       .  S
Zr787       O802   2.451       .  S
Zr787       O793   2.400       .  S
Zr787       O794   2.429       .  S
Zr787       O795   2.386       .  S
Zr787       O796   2.382       .  S
Zr788       O807   2.436       .  S
Zr788       O800   2.435       .  S
Zr788       O801   2.418       .  S
Zr788       O794   2.411       .  S
Zr788       O795   2.405       .  S
Zr789       O791   2.436       .  S
Zr789       O813   2.436       .  S
Zr789       O815   2.454       .  S
Zr789       O793   2.378       .  S
Zr789       O796   2.395       .  S
Zr790       O816   2.433       .  S
Zr790       O817   2.435       .  S
Zr790       O792   2.436       .  S
Zr790       O793   2.385       .  S
Zr790       O794   2.394       .  S
O791        H828   0.990       .  S
O792        H823   0.991       .  S
O792        H837   0.990       .  S
O794        H820   0.967       .  S
O795       Zr805   2.374       .  S
O796       Zr805   2.384       .  S
O796        H821   0.967       .  S
O800        H836   0.990       .  S
O801        C803   1.277       .  A
O802        C803   1.291       .  A
O804       Zr805   2.430       .  S
O804        H833   0.991       .  S
Zr805       O808   2.440       .  S
Zr805       O809   2.440       .  S
Zr805       O810   2.393       .  S
O806        C811   1.285       .  A
O807        H824   0.990       .  S
O807        H839   0.990       .  S
O808        H825   0.990       .  S
O809        H829   0.990       .  S
O809        H838   0.990       .  S
O810        C811   1.277       .  A
O812        H831   0.989       .  S
O812        H835   0.990       .  S
O813        H827   0.990       .  S
O813        H834   0.990       .  S
O814        C818   1.294       .  A
O815        C818   1.286       .  A
O816        H826   0.990       .  S
O817        H830   0.990       .  S
C841        N842   1.358       .  A
C841        N846   1.373       .  A
N842        C843   1.347       .  A
C843       C1458   1.462       .  S
C843        N844   1.349       .  A
N844        C845   1.351       .  A
C845        N846   1.370       .  A
C847        N848   1.379       .  A
C847        N852   1.356       .  A
N848        C849   1.371       .  A
C849        C875   1.478       .  S
C849        N850   1.350       .  A
N850        C851   1.347       .  A
C851       C1461   1.464       .  S
C851        N852   1.350       .  A
Zr853       O854   2.439       .  S
Zr853       O855   2.497       .  S
Zr853       O856   2.456       .  S
Zr853       O859   2.473   1_554  S
Zr853       O861   2.386       .  S
Zr853       O862   2.388       .  S
Zr853       O863   2.434       .  S
Zr853       O864   2.411   1_554  S
O854        H910   0.990       .  S
O854        H918   0.990       .  S
O855        C875   1.291       .  A
O856        C877   1.288       .  A
O857       Zr867   2.438       .  S
O857        C876   1.284       .  A
O858       Zr866   2.443       .  S
O858        C877   1.284       .  A
O859        C876   1.293       .  A
O860       Zr868   2.401       .  S
O860        C875   1.274       .  A
O861       Zr866   2.404       .  S
O861       Zr868   2.382       .  S
O862       Zr867   2.399   1_554  S
O862       Zr868   2.386       .  S
O862        H897   0.967       .  S
O863       Zr866   2.402       .  S
O863       Zr883   2.375   1_554  S
O863        H900   0.966   1_554  S
O864       Zr867   2.387       .  S
O864       Zr883   2.393       .  S
Zr865       O890   2.432       .  S
Zr865       O884   2.450       .  S
Zr865       O892   2.466       .  S
Zr865       O880   2.474   1_556  S
Zr865       O871   2.401       .  S
Zr865       O872   2.411   1_556  S
Zr865       O873   2.384       .  S
Zr865       O874   2.396       .  S
Zr866       O885   2.438       .  S
Zr866       O878   2.435       .  S
Zr866       O879   2.451       .  S
Zr866       O872   2.405       .  S
Zr866       O873   2.394   1_554  S
Zr867       O869   2.435       .  S
Zr867       O891   2.436       .  S
Zr867       O893   2.434       .  S
Zr867       O871   2.396       .  S
Zr867       O874   2.395       .  S
Zr868       O894   2.434       .  S
Zr868       O895   2.431       .  S
Zr868       O870   2.439       .  S
Zr868       O871   2.380   1_554  S
Zr868       O872   2.392       .  S
O869        H906   0.990       .  S
O870        H901   0.990       .  S
O870        H915   0.990       .  S
O872        H898   0.966       .  S
O873       Zr883   2.375       .  S
O874       Zr883   2.371       .  S
O874        H899   0.964       .  S
C876        C997   1.487       .  S
C877       C1023   1.464       .  S
O878        H914   0.990       .  S
O879        C881   1.285       .  A
O880        C881   1.294       .  A
O882       Zr883   2.432       .  S
O882        H911   0.990       .  S
Zr883       O886   2.437       .  S
Zr883       O887   2.439       .  S
Zr883       O888   2.413       .  S
O884        C889   1.281       .  A
O885        H902   0.990       .  S
O885        H917   0.990       .  S
O886        H903   0.990       .  S
O887        H907   0.990       .  S
O887        H916   0.990       .  S
O888        C889   1.274       .  A
O890        H909   0.990   1_556  S
O890        H913   0.990       .  S
O891        H905   0.990       .  S
O891        H912   0.990       .  S
O892        C896   1.291       .  A
O893        C896   1.282       .  A
O894        H904   0.990       .  S
O895        H908   0.990       .  S
C896       C1277   1.472       .  S
Zr919       O920   2.441       .  S
Zr919       O921   2.461       .  S
Zr919       O922   2.441   1_455  S
Zr919       O925   2.458   1_565  S
Zr919       O927   2.388       .  S
Zr919       O928   2.393       .  S
Zr919       O929   2.421   1_465  S
Zr919       O930   2.401   1_565  S
O920        H976   0.990       .  S
O920        H984   0.991   1_565  S
O921        C941   1.283       .  A
O922        C943   1.287       .  A
O923       Zr933   2.456       .  S
O923        C942   1.287       .  A
O924       Zr932   2.423       .  S
O924        C943   1.279       .  A
O925        C942   1.289       .  A
O926       Zr934   2.425       .  S
O926        C941   1.279       .  A
O927       Zr932   2.404   1_455  S
O927       Zr934   2.376       .  S
O928       Zr933   2.393   1_565  S
O928       Zr934   2.379       .  S
O928        H963   0.968       .  S
O929       Zr932   2.403   1_545  S
O929       Zr949   2.399       .  S
O929        H966   0.967       .  S
O930       Zr933   2.378       .  S
O930       Zr949   2.377   1_455  S
Zr931       O956   2.439       .  S
Zr931       O950   2.456       .  S
Zr931       O958   2.446   1_655  S
Zr931       O946   2.491   1_545  S
Zr931       O937   2.419   1_655  S
Zr931       O938   2.423   1_545  S
Zr931       O939   2.378       .  S
Zr931       O940   2.395   1_655  S
Zr932       O951   2.435       .  S
Zr932       O944   2.435       .  S
Zr932       O945   2.444       .  S
Zr932       O938   2.394       .  S
Zr932       O939   2.395   1_565  S
Zr933       O935   2.435       .  S
Zr933       O957   2.437       .  S
Zr933       O959   2.420       .  S
Zr933       O937   2.406       .  S
Zr933       O940   2.402       .  S
Zr934       O960   2.432       .  S
Zr934       O961   2.437       .  S
Zr934       O936   2.438       .  S
Zr934       O937   2.397   1_565  S
Zr934       O938   2.377   1_455  S
O935        H972   0.990       .  S
O936        H967   0.990       .  S
O936        H981   0.990       .  S
O938        H964   0.965       .  S
O939       Zr949   2.380       .  S
O940       Zr949   2.372   1_455  S
O940        H965   0.967       .  S
C941        C995   1.475       .  S
C942       C1011   1.474       .  S
C943       C1117   1.464       .  S
O944        H980   0.990       .  S
O945        C947   1.282       .  A
O946        C947   1.294       .  A
O948       Zr949   2.431       .  S
O948        H977   0.990       .  S
Zr949       O952   2.430       .  S
Zr949       O953   2.439       .  S
Zr949       O954   2.415       .  S
O950        C955   1.283       .  A
O951        H968   0.990       .  S
O951        H983   0.990       .  S
O952        H969   0.990       .  S
O953        H973   0.990       .  S
O953        H982   0.990       .  S
O954        C955   1.279       .  A
O956        H975   0.990       .  S
O956        H979   0.991       .  S
O957        H971   0.990       .  S
O957        H978   0.990       .  S
O958        C962   1.290       .  A
O959        C962   1.278       .  A
O960        H970   0.990       .  S
O961        H974   0.990       .  S
C985        N986   1.351       .  A
C985        N990   1.369       .  A
N986        C987   1.341       .  A
C987       C1444   1.446       .  S
C987        N988   1.342       .  A
N988        C989   1.353       .  A
C989        N990   1.372       .  A
C991       C1302   1.483       .  S
C991        N992   1.362       .  A
C991        N996   1.377       .  A
N992        C993   1.352       .  A
C993       C1447   1.468       .  S
C993        N994   1.345       .  A
N994        C995   1.350       .  A
C995        N996   1.372       .  A
C997        N998   1.377       .  A
C997       N1002   1.364       .  A
N998        C999   1.371       .  A
C999       N1000   1.352       .  A
N1000      C1001   1.351       .  A
C1001      C1433   1.477       .  S
C1001      N1002   1.355       .  A
C1003      C1055   1.471       .  S
C1003      N1004   1.354       .  A
C1003      N1008   1.370       .  A
N1004      C1005   1.344       .  A
C1005      C1430   1.476       .  S
C1005      N1006   1.354       .  A
N1006      C1007   1.363       .  A
C1007      N1008   1.372       .  A
C1009      N1010   1.374       .  A
C1009      N1014   1.352       .  A
N1010      C1011   1.377       .  A
C1011      N1012   1.359       .  A
N1012      C1013   1.348       .  A
C1013      C1416   1.465       .  S
C1013      N1014   1.345       .  A
C1015      N1016   1.359       .  A
C1015      N1020   1.382       .  A
N1016      C1017   1.348       .  A
C1017      C1419   1.481       .  S
C1017      N1018   1.350       .  A
N1018      C1019   1.354       .  A
C1019      C1069   1.491       .  S
C1019      N1020   1.375       .  A
C1021      N1022   1.362       .  A
C1021      N1026   1.357       .  A
N1022      C1023   1.365       .  A
C1023      N1024   1.364       .  A
N1024      C1025   1.356       .  A
C1025      C1405   1.496       .  S
C1025      N1026   1.357       .  A
C1027      C1211   1.476       .  S
C1027      N1028   1.356       .  A
C1027      N1032   1.368       .  A
N1028      C1029   1.345       .  A
C1029      C1402   1.489       .  S
C1029      N1030   1.356       .  A
N1030      C1031   1.366       .  A
C1031      C1061   1.474       .  S
C1031      N1032   1.372       .  A
Zr1033     O1034   2.440       .  S
Zr1033     O1035   2.457       .  S
Zr1033     O1036   2.476       .  S
Zr1033     O1039   2.481       .  S
Zr1033     O1041   2.391       .  S
Zr1033     O1042   2.398       .  S
Zr1033     O1043   2.420       .  S
Zr1033     O1044   2.406       .  S
O1034      H1090   0.990       .  S
O1034      H1098   0.990       .  S
O1035      C1055   1.284       .  A
O1036      C1057   1.295       .  A
O1037     Zr1047   2.431       .  S
O1037      C1056   1.276       .  A
O1038     Zr1046   2.434       .  S
O1038      C1057   1.280       .  A
O1039      C1056   1.293       .  A
O1040     Zr1048   2.411       .  S
O1040      C1055   1.281       .  A
O1041     Zr1046   2.407       .  S
O1041     Zr1048   2.379       .  S
O1042     Zr1047   2.394       .  S
O1042     Zr1048   2.363       .  S
O1042      H1077   0.960       .  S
O1043     Zr1046   2.407       .  S
O1043     Zr1063   2.393       .  S
O1043      H1080   0.966       .  S
O1044     Zr1047   2.394       .  S
O1044     Zr1063   2.380       .  S
Zr1045     O1070   2.439       .  S
Zr1045     O1064   2.516       .  S
Zr1045     O1072   2.482       .  S
Zr1045     O1060   2.478       .  S
Zr1045     O1051   2.425       .  S
Zr1045     O1052   2.445       .  S
Zr1045     O1053   2.385       .  S
Zr1045     O1054   2.392       .  S
Zr1046     O1065   2.438       .  S
Zr1046     O1058   2.436       .  S
Zr1046     O1059   2.442       .  S
Zr1046     O1052   2.395       .  S
Zr1046     O1053   2.400       .  S
Zr1047     O1049   2.425       .  S
Zr1047     O1071   2.438       .  S
Zr1047     O1073   2.431       .  S
Zr1047     O1051   2.395       .  S
Zr1047     O1054   2.398       .  S
Zr1048     O1074   2.434       .  S
Zr1048     O1075   2.436       .  S
Zr1048     O1050   2.439       .  S
Zr1048     O1051   2.404       .  S
Zr1048     O1052   2.372       .  S
O1049      H1086   0.990       .  S
O1050      H1081   0.991       .  S
O1050      H1095   0.990       .  S
O1052      H1078   0.963       .  S
O1053     Zr1063   2.377       .  S
O1054     Zr1063   2.389       .  S
O1054      H1079   0.963       .  S
C1057      C1111   1.480       .  S
O1058      H1094   0.990       .  S
O1059      C1061   1.282       .  A
O1060      C1061   1.292       .  A
O1062     Zr1063   2.438       .  S
O1062      H1091   0.990       .  S
Zr1063     O1066   2.441       .  S
Zr1063     O1067   2.438       .  S
Zr1063     O1068   2.404       .  S
O1064      C1069   1.295       .  A
O1065      H1082   0.990       .  S
O1065      H1097   0.990       .  S
O1066      H1083   0.990       .  S
O1067      H1087   0.989       .  S
O1067      H1096   0.990       .  S
O1068      C1069   1.275       .  A
O1070      H1089   0.990       .  S
O1070      H1093   0.991       .  S
O1071      H1085   0.990       .  S
O1071      H1092   0.990       .  S
O1072      C1076   1.296       .  A
O1073      C1076   1.280       .  A
O1074      H1084   0.990       .  S
O1075      H1088   0.990       .  S
C1099      C1322   1.475       .  S
C1099      N1100   1.366       .  A
C1099      N1104   1.354       .  A
N1100      C1101   1.369       .  A
C1101      N1102   1.360       .  A
N1102      C1103   1.355       .  A
C1103      C1391   1.488       .  S
C1103      N1104   1.357       .  A
C1105      C1212   1.465       .  S
C1105      N1106   1.359       .  A
C1105      N1110   1.367       .  A
N1106      C1107   1.354       .  A
C1107      C1388   1.478       .  S
C1107      N1108   1.355       .  A
N1108      C1109   1.354       .  A
C1109      C1166   1.469       .  S
C1109      N1110   1.365       .  A
C1111      N1112   1.352       .  A
C1111      N1116   1.383       .  A
N1112      C1113   1.341       .  A
C1113      C1374   1.461       .  S
C1113      N1114   1.346       .  A
N1114      C1115   1.354       .  A
C1115      N1116   1.380       .  A
C1117      N1118   1.354       .  A
C1117      N1122   1.371       .  A
N1118      C1119   1.344       .  A
C1119      C1377   1.455       .  S
C1119      N1120   1.340       .  A
N1120      C1121   1.353       .  A
C1121      C1145   1.458       .  S
C1121      N1122   1.369       .  A
Zr1123     O1124   2.439       .  S
Zr1123     O1125   2.464       .  S
Zr1123     O1126   2.475       .  S
Zr1123     O1129   2.444       .  S
Zr1123     O1131   2.383       .  S
Zr1123     O1132   2.388       .  S
Zr1123     O1133   2.424       .  S
Zr1123     O1134   2.421       .  S
O1124      H1180   0.990       .  S
O1124      H1188   0.990       .  S
O1125      C1145   1.285       .  A
O1126      C1147   1.291       .  A
O1127     Zr1137   2.415       .  S
O1127      C1146   1.277       .  A
O1128     Zr1136   2.429       .  S
O1128      C1147   1.279       .  A
O1129      C1146   1.290       .  A
O1130     Zr1138   2.391       .  S
O1130      C1145   1.273       .  A
O1131     Zr1136   2.400       .  S
O1131     Zr1138   2.380       .  S
O1132     Zr1137   2.391       .  S
O1132     Zr1138   2.372       .  S
O1132      H1167   0.967       .  S
O1133     Zr1136   2.396       .  S
O1133     Zr1153   2.365       .  S
O1133      H1170   0.963       .  S
O1134     Zr1137   2.401       .  S
O1134     Zr1153   2.403       .  S
Zr1135     O1160   2.438       .  S
Zr1135     O1154   2.434       .  S
Zr1135     O1162   2.474       .  S
Zr1135     O1150   2.431       .  S
Zr1135     O1141   2.393       .  S
Zr1135     O1142   2.413       .  S
Zr1135     O1143   2.382       .  S
Zr1135     O1144   2.389       .  S
Zr1136     O1155   2.437       .  S
Zr1136     O1148   2.436       .  S
Zr1136     O1149   2.420       .  S
Zr1136     O1142   2.405       .  S
Zr1136     O1143   2.397       .  S
Zr1137     O1139   2.434       .  S
Zr1137     O1161   2.439       .  S
Zr1137     O1163   2.426       .  S
Zr1137     O1141   2.390       .  S
Zr1137     O1144   2.389       .  S
Zr1138     O1164   2.437       .  S
Zr1138     O1165   2.433       .  S
Zr1138     O1140   2.437       .  S
Zr1138     O1141   2.377       .  S
Zr1138     O1142   2.386       .  S
O1139      H1176   0.990       .  S
O1140      H1171   0.990       .  S
O1140      H1185   0.989       .  S
O1142      H1168   0.965       .  S
O1143     Zr1153   2.373       .  S
O1144     Zr1153   2.371       .  S
O1144      H1169   0.966       .  S
O1148      H1184   0.990       .  S
O1149      C1151   1.278       .  A
O1150      C1151   1.288       .  A
O1152     Zr1153   2.438       .  S
O1152      H1181   0.990       .  S
Zr1153     O1156   2.437       .  S
Zr1153     O1157   2.435       .  S
Zr1153     O1158   2.413       .  S
O1154      C1159   1.280       .  A
O1155      H1172   0.990       .  S
O1155      H1187   0.990       .  S
O1156      H1173   0.990       .  S
O1157      H1177   0.990       .  S
O1157      H1186   0.991       .  S
O1158      C1159   1.279       .  A
O1160      H1179   0.990       .  S
O1160      H1183   0.990       .  S
O1161      H1175   0.990       .  S
O1161      H1182   0.990       .  S
O1162      C1166   1.291       .  A
O1163      C1166   1.277       .  A
O1164      H1174   0.990       .  S
O1165      H1178   0.990       .  S
Zr1189     O1190   2.435       .  S
Zr1189     O1191   2.473       .  S
Zr1189     O1192   2.479   1_655  S
Zr1189     O1195   2.466       .  S
Zr1189     O1197   2.388       .  S
Zr1189     O1198   2.393       .  S
Zr1189     O1199   2.417   1_655  S
Zr1189     O1200   2.408       .  S
O1190      H1246   0.990       .  S
O1190      H1254   0.990   1_655  S
O1191      C1211   1.287       .  A
O1192      C1213   1.293       .  A
O1193     Zr1203   2.422   1_556  S
O1193      C1212   1.281       .  A
O1194     Zr1202   2.438       .  S
O1194      C1213   1.284       .  A
O1195      C1212   1.290       .  A
O1196     Zr1204   2.391   1_556  S
O1196      C1211   1.277       .  A
O1197     Zr1202   2.407   1_655  S
O1197     Zr1204   2.386   1_556  S
O1198     Zr1203   2.395   1_556  S
O1198     Zr1204   2.372   1_556  S
O1198      H1233   0.966       .  S
O1199     Zr1202   2.404       .  S
O1199     Zr1219   2.379       .  S
O1199      H1236   0.965       .  S
O1200     Zr1203   2.391   1_556  S
O1200     Zr1219   2.381   1_655  S
Zr1201     O1226   2.442       .  S
Zr1201     O1220   2.464       .  S
Zr1201     O1228   2.436   1_455  S
Zr1201     O1216   2.465       .  S
Zr1201     O1207   2.407   1_455  S
Zr1201     O1208   2.414       .  S
Zr1201     O1209   2.383       .  S
Zr1201     O1210   2.392       .  S
Zr1202     O1221   2.434       .  S
Zr1202     O1214   2.434       .  S
Zr1202     O1215   2.439   1_556  S
Zr1202     O1208   2.398   1_556  S
Zr1202     O1209   2.399   1_556  S
Zr1203     O1205   2.435       .  S
Zr1203     O1227   2.440       .  S
Zr1203     O1229   2.427       .  S
Zr1203     O1207   2.395       .  S
Zr1203     O1210   2.399   1_655  S
Zr1204     O1230   2.437       .  S
Zr1204     O1231   2.435       .  S
Zr1204     O1206   2.437       .  S
Zr1204     O1207   2.382       .  S
Zr1204     O1208   2.374   1_655  S
O1205      H1242   0.990       .  S
O1206      H1237   0.990       .  S
O1206      H1251   0.990   1_554  S
O1208      H1234   0.964       .  S
O1209     Zr1219   2.385   1_554  S
O1210     Zr1219   2.374   1_554  S
O1210      H1235   0.966       .  S
O1214      H1250   0.990       .  S
O1215      C1217   1.285       .  A
O1216      C1217   1.289       .  A
O1218     Zr1219   2.439       .  S
O1218      H1247   0.990       .  S
Zr1219     O1222   2.438       .  S
Zr1219     O1223   2.441       .  S
Zr1219     O1224   2.388   1_556  S
O1220      C1225   1.284       .  A
O1221      H1238   0.990       .  S
O1221      H1253   0.990       .  S
O1222      H1239   0.990       .  S
O1223      H1243   0.990       .  S
O1223      H1252   0.990       .  S
O1224      C1225   1.278       .  A
C1225      C1267   1.474       .  S
O1226      H1245   0.990       .  S
O1226      H1249   0.991       .  S
O1227      H1241   0.990       .  S
O1227      H1248   0.990   1_554  S
O1228      C1232   1.286       .  A
O1229      C1232   1.280       .  A
O1230      H1240   0.990       .  S
O1231      H1244   0.990       .  S
C1255      N1256   1.354       .  A
C1255      N1260   1.376       .  A
N1256      C1257   1.344       .  A
C1257      C1363   1.457       .  S
C1257      N1258   1.347       .  A
N1258      C1259   1.348       .  A
C1259      N1260   1.375       .  A
C1261      N1262   1.352       .  A
C1261      N1266   1.369       .  A
N1262      C1263   1.346       .  A
C1263      C1360   1.443       .  S
C1263      N1264   1.341       .  A
N1264      C1265   1.347       .  A
C1265      C1315   1.449       .  S
C1265      N1266   1.368       .  A
C1267      N1268   1.372       .  A
C1267      N1272   1.355       .  A
N1268      C1269   1.374       .  A
C1269      N1270   1.353       .  A
N1270      C1271   1.345       .  A
C1271      C1346   1.465       .  S
C1271      N1272   1.340       .  A
C1273      C1307   1.480       .  S
C1273      N1274   1.349       .  A
C1273      N1278   1.371       .  A
N1274      C1275   1.348       .  A
C1275      C1349   1.474       .  S
C1275      N1276   1.352       .  A
N1276      C1277   1.359       .  A
C1277      N1278   1.375       .  A
Zr1279     O1280   2.436       .  S
Zr1279     O1281   2.464       .  S
Zr1279     O1282   2.473       .  S
Zr1279     O1285   2.448       .  S
Zr1279     O1287   2.385       .  S
Zr1279     O1288   2.387       .  S
Zr1279     O1289   2.420       .  S
Zr1279     O1290   2.421       .  S
O1280      H1336   0.990       .  S
O1280      H1344   0.991       .  S
O1281      C1301   1.286       .  A
O1282      C1303   1.291       .  A
O1283     Zr1293   2.446       .  S
O1283      C1302   1.285       .  A
O1284     Zr1292   2.441       .  S
O1284      C1303   1.283       .  A
O1285      C1302   1.289       .  A
O1286     Zr1294   2.410       .  S
O1286      C1301   1.276       .  A
O1287     Zr1292   2.399       .  S
O1287     Zr1294   2.386       .  S
O1288     Zr1293   2.392       .  S
O1288     Zr1294   2.376       .  S
O1288      H1323   0.970       .  S
O1289     Zr1292   2.400       .  S
O1289     Zr1309   2.380       .  S
O1289      H1326   0.962       .  S
O1290     Zr1293   2.404       .  S
O1290     Zr1309   2.403       .  S
Zr1291     O1316   2.440       .  S
Zr1291     O1310   2.419       .  S
Zr1291     O1318   2.474       .  S
Zr1291     O1306   2.452       .  S
Zr1291     O1297   2.389       .  S
Zr1291     O1298   2.411       .  S
Zr1291     O1299   2.391       .  S
Zr1291     O1300   2.413       .  S
Zr1292     O1311   2.439       .  S
Zr1292     O1304   2.433       .  S
Zr1292     O1305   2.436       .  S
Zr1292     O1298   2.410       .  S
Zr1292     O1299   2.386       .  S
Zr1293     O1295   2.434       .  S
Zr1293     O1317   2.438       .  S
Zr1293     O1319   2.434       .  S
Zr1293     O1297   2.392       .  S
Zr1293     O1300   2.403       .  S
Zr1294     O1320   2.436       .  S
Zr1294     O1321   2.436       .  S
Zr1294     O1296   2.431       .  S
Zr1294     O1297   2.374       .  S
Zr1294     O1298   2.399       .  S
O1295      H1332   0.990       .  S
O1296      H1327   0.990       .  S
O1296      H1341   0.988       .  S
O1298      H1324   0.967       .  S
O1299     Zr1309   2.372       .  S
O1300     Zr1309   2.384       .  S
O1300      H1325   0.969       .  S
O1304      H1340   0.990       .  S
O1305      C1307   1.282       .  A
O1306      C1307   1.290       .  A
O1308     Zr1309   2.440       .  S
O1308      H1337   0.990       .  S
Zr1309     O1312   2.441       .  S
Zr1309     O1313   2.434       .  S
Zr1309     O1314   2.435       .  S
O1310      C1315   1.273       .  A
O1311      H1328   0.990       .  S
O1311      H1343   0.990       .  S
O1312      H1329   0.989       .  S
O1313      H1333   0.990       .  S
O1313      H1342   0.989       .  S
O1314      C1315   1.274       .  A
O1316      H1335   0.991       .  S
O1316      H1339   0.990       .  S
O1317      H1331   0.990       .  S
O1317      H1338   0.990       .  S
O1318      C1322   1.293       .  A
O1319      C1322   1.282       .  A
O1320      H1330   0.990       .  S
O1321      H1334   0.990       .  S
C1345      C1346   1.397       .  A
C1345      C1350   1.393       .  A
C1345      H1352   1.080       .  S
C1346      C1347   1.409       .  A
C1347      C1348   1.390   1_554  A
C1347      N1354   1.428   1_554  S
C1348      C1349   1.404       .  A
C1348      H1353   1.084       .  S
C1349      C1350   1.409   1_556  A
C1350      N1351   1.424       .  S
N1351      O1355   1.262       .  A
N1351      O1356   1.259       .  A
N1354      O1358   1.261       .  A
N1354      O1357   1.262       .  A
C1359      C1360   1.393       .  A
C1359      C1364   1.388       .  A
C1359      H1366   1.085       .  S
C1360      C1361   1.404       .  A
C1361      C1362   1.386   1_565  A
C1361      N1368   1.428       .  S
C1362      C1363   1.400       .  A
C1362      H1367   1.084       .  S
C1363      C1364   1.412   1_545  A
C1364      N1365   1.426   1_565  S
N1365      O1369   1.262       .  A
N1365      O1370   1.261   1_545  A
N1368      O1372   1.261       .  A
N1368      O1371   1.262   1_565  A
C1373      C1374   1.399   1_565  A
C1373      C1378   1.390       .  A
C1373      H1380   1.085       .  S
C1374      C1375   1.411       .  A
C1375      C1376   1.390       .  A
C1375      N1382   1.426       .  S
C1376      C1377   1.395   1_545  A
C1376      H1381   1.085       .  S
C1377      C1378   1.407       .  A
C1378      N1379   1.425       .  S
N1379      O1383   1.261       .  A
N1379      O1384   1.261       .  A
N1382      O1386   1.261       .  A
N1382      O1385   1.261       .  A
C1387      C1388   1.400       .  A
C1387      C1392   1.397       .  A
C1387      H1394   1.084       .  S
C1388      C1389   1.411   1_655  A
C1389      C1390   1.396       .  A
C1389      N1396   1.427       .  S
C1390      C1391   1.405       .  A
C1390      H1395   1.084       .  S
C1391      C1392   1.416   1_455  A
C1392      N1393   1.425       .  S
N1393      O1397   1.260       .  A
N1393      O1398   1.261       .  A
N1396      O1400   1.261       .  A
N1396      O1399   1.262       .  A
C1401      C1402   1.403       .  A
C1401      C1406   1.414       .  A
C1401      H1408   1.083       .  S
C1402      C1403   1.415       .  A
C1403      C1404   1.392   1_556  A
C1403      N1410   1.428       .  S
C1404      C1405   1.401       .  A
C1404      H1409   1.084       .  S
C1405      C1406   1.422   1_554  A
C1406      N1407   1.435       .  S
N1407      O1411   1.262       .  A
N1407      O1412   1.262       .  A
N1410      O1414   1.262       .  A
N1410      O1413   1.261   1_556  A
C1415      C1416   1.400       .  A
C1415      C1420   1.397       .  A
C1415      H1422   1.085       .  S
C1416      C1417   1.403   1_455  A
C1417      C1418   1.394       .  A
C1417      N1424   1.426       .  S
C1418      C1419   1.406       .  A
C1418      H1423   1.082       .  S
C1419      C1420   1.416   1_655  A
C1420      N1421   1.428       .  S
N1421      O1425   1.262       .  A
N1421      O1426   1.261       .  A
N1424      O1428   1.259       .  A
N1424      O1427   1.262       .  A
C1429      C1430   1.402       .  A
C1429      C1434   1.402       .  A
C1429      H1436   1.083       .  S
C1430      C1431   1.412       .  A
C1431      C1432   1.396       .  A
C1431      N1438   1.428       .  S
C1432      C1433   1.400       .  A
C1432      H1437   1.084       .  S
C1433      C1434   1.411       .  A
C1434      N1435   1.426       .  S
N1435      O1439   1.261       .  A
N1435      O1440   1.261       .  A
N1438      O1442   1.262       .  A
N1438      O1441   1.262       .  A
C1443      C1444   1.393       .  A
C1443      C1448   1.395       .  A
C1443      H1450   1.084       .  S
C1444      C1445   1.399       .  A
C1445      C1446   1.392       .  A
C1445      N1452   1.431       .  S
C1446      C1447   1.407       .  A
C1446      H1451   1.084       .  S
C1447      C1448   1.412       .  A
C1448      N1449   1.425       .  S
N1449      O1453   1.262       .  A
N1449      O1454   1.261       .  A
N1452      O1456   1.262       .  A
N1452      O1455   1.262       .  A
C1457      C1458   1.399       .  A
C1457      C1462   1.389       .  A
C1457      H1464   1.085       .  S
C1458      C1459   1.408       .  A
C1459      C1460   1.396       .  A
C1459      N1466   1.427       .  S
C1460      C1461   1.403       .  A
C1460      H1465   1.084       .  S
C1461      C1462   1.408       .  A
C1462      N1463   1.426       .  S
N1463      O1467   1.261       .  A
N1463      O1468   1.262       .  A
N1466      O1470   1.262       .  A
N1466      O1469   1.261       .  A
C1471      C1472   1.393   1_556  A
C1471      C1476   1.387       .  A
C1471      H1478   1.085       .  S
C1472      C1473   1.410       .  A
C1473      C1474   1.386       .  A
C1473      N1480   1.428       .  S
C1474      C1475   1.395   1_554  A
C1474      H1479   1.085       .  S
C1475      C1476   1.410       .  A
C1476      N1477   1.426       .  S
N1477      O1481   1.262       .  A
N1477      O1482   1.261       .  A
N1480      O1484   1.261       .  A
N1480      O1483   1.262       .  A
C1485      C1486   1.403   1_655  A
C1485      C1490   1.393       .  A
C1485      H1492   1.084       .  S
C1486      C1487   1.417       .  A
C1487      C1488   1.397   1_455  A
C1487      N1494   1.428       .  S
C1488      C1489   1.399       .  A
C1488      H1493   1.084       .  S
C1489      C1490   1.408       .  A
C1490      N1491   1.426       .  S
N1491      O1495   1.260       .  A
N1491      O1496   1.262       .  A
N1494      O1498   1.262       .  A
N1494      O1497   1.262       .  A
C1499      C1500   1.396       .  A
C1499      C1504   1.390   1_565  A
C1499      H1506   1.085       .  S
C1500      C1501   1.413   1_565  A
C1501      C1502   1.393       .  A
C1501      N1508   1.426       .  S
C1502      C1503   1.396       .  A
C1502      H1507   1.085       .  S
C1503      C1504   1.414       .  A
C1504      N1505   1.428   1_545  S
N1505      O1509   1.262       .  A
N1505      O1510   1.261       .  A
N1508      O1512   1.261       .  A
N1508      O1511   1.262       .  A
C1513      C1514   1.401       .  A
C1513      C1518   1.395       .  A
C1513      H1520   1.085       .  S
C1514      C1515   1.408       .  A
C1515      C1516   1.395       .  A
C1515      N1522   1.426       .  S
C1516      C1517   1.400       .  A
C1516      H1521   1.085       .  S
C1517      C1518   1.409       .  A
C1518      N1519   1.428       .  S
N1519      O1523   1.262       .  A
N1519      O1524   1.262       .  A
N1522      O1526   1.261       .  A
N1522      O1525   1.262       .  A
C1527      C1528   1.403       .  A
C1527      C1532   1.389       .  A
C1527      H1534   1.084       .  S
C1528      C1529   1.411       .  A
C1529      C1530   1.397       .  A
C1529      N1536   1.427       .  S
C1530      C1531   1.400       .  A
C1530      H1535   1.084       .  S
C1531      C1532   1.404       .  A
C1532      N1533   1.428       .  S
N1533      O1537   1.261       .  A
N1533      O1538   1.262       .  A
N1536      O1540   1.262       .  A
N1536      O1539   1.261       .  A
C1541      C1542   1.395       .  A
C1541      C1546   1.401       .  A
C1541      H1548   1.084       .  S
C1542      C1543   1.423   1_556  A
C1543      C1544   1.400       .  A
C1543      N1550   1.425       .  S
C1544      C1545   1.393       .  A
C1544      H1549   1.084       .  S
C1545      C1546   1.425   1_554  A
C1546      N1547   1.427       .  S
N1547      O1551   1.262       .  A
N1547      O1552   1.262       .  A
N1550      O1554   1.261       .  A
N1550      O1553   1.262       .  A
C1555      C1556   1.397       .  A
C1555      C1560   1.396       .  A
C1555      H1562   1.084       .  S
C1556      C1557   1.405       .  A
C1557      C1558   1.386       .  A
C1557      N1564   1.428       .  S
C1558      C1559   1.399       .  A
C1558      H1563   1.085       .  S
C1559      C1560   1.411       .  A
C1560      N1561   1.426       .  S
N1561      O1565   1.262       .  A
N1561      O1566   1.261       .  A
N1564      O1568   1.261       .  A
N1564      O1567   1.262       .  A
C1569      C1570   1.403       .  A
C1569      C1574   1.395       .  A
C1569      H1576   1.085       .  S
C1570      C1571   1.408       .  A
C1571      C1572   1.398       .  A
C1571      N1578   1.427       .  S
C1572      C1573   1.404       .  A
C1572      H1577   1.084       .  S
C1573      C1574   1.408       .  A
C1574      N1575   1.426       .  S
N1575      O1579   1.262       .  A
N1575      O1580   1.261       .  A
N1578      O1582   1.261       .  A
N1578      O1581   1.262       .  A
C1583      C1584   1.394       .  A
C1583      C1588   1.402       .  A
C1583      H1590   1.084       .  S
C1584      C1585   1.415       .  A
C1585      C1586   1.404       .  A
C1585      N1592   1.430       .  S
C1586      C1587   1.407       .  A
C1586      H1591   1.084       .  S
C1587      C1588   1.423       .  A
C1588      N1589   1.426       .  S
N1589      O1593   1.262       .  A
N1589      O1594   1.260       .  A
N1592      O1596   1.261       .  A
N1592      O1595   1.263       .  A
C1597      C1598   1.405       .  A
C1597      C1602   1.402       .  A
C1597      H1604   1.084       .  S
C1598      C1599   1.417       .  A
C1599      C1600   1.404       .  A
C1599      N1606   1.426       .  S
C1600      C1601   1.404       .  A
C1600      H1605   1.084       .  S
C1601      C1602   1.416       .  A
C1602      N1603   1.427       .  S
N1603      O1607   1.261       .  A
N1603      O1608   1.262       .  A
N1606      O1610   1.262       .  A
N1606      O1609   1.261       .  A
C1611      C1612   1.395   1_565  A
C1611      C1616   1.390       .  A
C1611      H1618   1.085   1_565  S
C1612      C1613   1.406   1_545  A
C1613      C1614   1.382       .  A
C1613      N1620   1.426   1_565  S
C1614      C1615   1.393       .  A
C1614      H1619   1.085       .  S
C1615      C1616   1.409       .  A
C1616      N1617   1.426       .  S
N1617      O1621   1.262       .  A
N1617      O1622   1.261       .  A
N1620      O1624   1.260       .  A
N1620      O1623   1.262       .  A
C1625      C1626   1.403       .  A
C1625      C1630   1.397       .  A
C1625      H1632   1.083       .  S
C1626      C1627   1.406       .  A
C1627      C1628   1.393       .  A
C1627      N1634   1.426       .  S
C1628      C1629   1.401       .  A
C1628      H1633   1.084       .  S
C1629      C1630   1.408       .  A
C1630      N1631   1.427       .  S
N1631      O1635   1.260       .  A
N1631      O1636   1.261       .  A
N1634      O1638   1.261       .  A
N1634      O1637   1.261       .  A
C1639      C1640   1.395       .  A
C1639      C1644   1.392       .  A
C1639      H1646   1.085       .  S
C1640      C1641   1.409       .  A
C1641      C1642   1.384       .  A
C1641      N1648   1.428       .  S
C1642      C1643   1.398       .  A
C1642      H1647   1.084       .  S
C1643      C1644   1.413       .  A
C1644      N1645   1.424       .  S
N1645      O1649   1.262       .  A
N1645      O1650   1.262       .  A
N1648      O1652   1.262       .  A
N1648      O1651   1.262       .  A
C1653      C1654   1.396       .  A
C1653      C1658   1.399       .  A
C1653      H1660   1.084       .  S
C1654      C1655   1.408       .  A
C1655      C1656   1.390       .  A
C1655      N1662   1.429       .  S
C1656      C1657   1.398       .  A
C1656      H1661   1.085       .  S
C1657      C1658   1.413       .  A
C1658      N1659   1.426       .  S
N1659      O1663   1.261       .  A
N1659      O1664   1.262       .  A
N1662      O1666   1.262       .  A
N1662      O1665   1.260       .  A
C1667      C1668   1.404   1_455  A
C1667      C1672   1.405       .  A
C1667      H1674   1.084   1_455  S
C1668      C1669   1.412   1_655  A
C1669      C1670   1.395       .  A
C1669      N1676   1.425   1_455  S
C1670      C1671   1.398       .  A
C1670      H1675   1.085       .  S
C1671      C1672   1.413       .  A
C1672      N1673   1.427       .  S
N1673      O1677   1.262       .  A
N1673      O1678   1.262       .  A
N1676      O1680   1.259       .  A
N1676      O1679   1.262   1_655  A
