geometry optimzed in LAMMPS
_audit_creation_date              2020-11-30 
_audit_creation_method            'lammps2cif' 
_symmetry_space_group_name_H-M    'P1' 
_symmetry_Int_Tables_number       1 
_symmetry_cell_setting            triclinic 
loop_ 
_symmetry_equiv_pos_as_xyz 
  x,y,z 
_cell_length_a                    27.99148578 
_cell_length_b                    27.68184397553336 
_cell_length_c                    50.055264432787304 
_cell_angle_alpha                 89.34247142843445 
_cell_angle_beta                  88.63225014362476 
_cell_angle_gamma                 121.46151087521099 
loop_ 
_atom_site_label 
_atom_site_type_symbol 
_atom_site_fract_x 
_atom_site_fract_y 
_atom_site_fract_z 
_atom_site_charge 
C1          C  0.31931607  0.21379842  0.48416867     0.03300
C2          C  0.27831714  0.15635100  0.98157285    -0.12800
C3          C  0.29277478  0.11439448  0.98138407     0.00800
C4          C  0.34969620  0.13150415  0.98050529    -0.11300
C5          C  0.39203073  0.18910241  0.48290917     0.03300
C6          C  0.37638012  0.22985072  0.48402707    -0.10700
H7          H  0.23464710  0.14331069  0.98461472     0.08900
H8          H  0.36053058  0.09940555  0.98290898     0.06500
H9          H  0.40777877  0.27294156  0.48884939     0.06300
C10         C  0.20569730  0.31513349  0.99228177     0.03300
C11         C  0.22586147  0.37382414  0.99151457    -0.12800
C12         C  0.18887258  0.39375330  0.99120009     0.00800
C13         C  0.13062395  0.35415022  0.99066340    -0.11300
C14         C  0.10933953  0.29565371  0.99164431     0.03300
C15         C  0.14743607  0.27654217  0.99208934    -0.10700
H16         H  0.27005896  0.40384148  0.99413782     0.08900
H17         H  0.10160126  0.36880609  0.99265251     0.06500
H18         H  0.13147160  0.23172571  0.99510614     0.06300
C19         C  0.32155953  0.32165950  0.03094216     0.86700
C20         C  0.31953633  0.26763877  0.02269635    -0.53500
C21         C  0.30307255  0.25185990  0.99727219     0.09600
C22         C  0.28612249  0.29064100  0.48283434     0.20600
C23         C  0.35871531  0.36589163  0.00885630    -0.54300
C24         C  0.33934968  0.34936177  0.48378063     0.09700
C25         C  0.26246425  0.30982562  0.02684267    -0.53800
C26         C  0.24399906  0.29609002  0.00148882     0.10300
H27         H  0.33645370  0.24709376  0.03435583     0.14800
H28         H  0.27091274  0.27686343  0.46239332     0.00600
H29         H  0.39626797  0.40629077  0.01267848     0.15600
H30         H  0.24063670  0.32032928  0.04175213     0.14900
C31         C  0.98799121  0.17304966  0.02910386     0.86700
C32         C  0.99410094  0.13850156  0.00662043    -0.53500
C33         C  0.00174218  0.16284818  0.48163645     0.09600
C34         C  0.00167843  0.21812310  0.48130746     0.20600
C35         C  0.03990461  0.23275733  0.02556674    -0.54300
C36         C  0.04947434  0.25571717  0.00036165     0.09700
C37         C  0.43945596  0.17949492  0.02090861    -0.53800
C38         C  0.44485482  0.20129601  0.99574545     0.10300
H39         H  0.99300469  0.09915523  0.01015827     0.14800
H40         H  0.00705740  0.23760761  0.46108558     0.00600
H41         H  0.07111927  0.25204806  0.04076419     0.15100
H42         H  0.40078207  0.16279543  0.03276747     0.14900
C43         C  0.17907112  0.00417020  0.02818907     0.86700
C44         C  0.19207327  0.45731485  0.02500155    -0.53500
C45         C  0.20829450  0.45264520  0.99968576     0.09600
C46         C  0.21534882  0.00045789  0.48032506     0.20600
C47         C  0.23253119  0.05841655  0.01938968    -0.54300
C48         C  0.25149969  0.05821790  0.99419187     0.09700
C49         C  0.13727004  0.99409960  0.00606698    -0.53800
C50         C  0.15657768  0.99164235  0.48108217     0.10300
H51         H  0.17975116  0.42442524  0.04036754     0.14800
H52         H  0.23175547  0.99959474  0.46002787     0.00600
H53         H  0.25143501  0.09616854  0.03135949     0.15100
H54         H  0.09635381  0.98870883  0.00961327     0.14900
O55         O  0.42849799  0.39248382  0.23398617    -0.85100
O56         O  0.03860531  0.45170564  0.22112812    -0.82200
C57         C  0.08599704  0.99521602  0.21688356     0.98300
O58         O  0.10931113  0.03069146  0.23508172    -0.82200
O59         O  0.05809956  0.08676251  0.22141940    -0.84900
C60         C  0.01661660  0.09047276  0.21587171     1.02900
O61         O  0.47547609  0.07316615  0.23248041    -0.77600
O62         O  0.41898455  0.46323433  0.22200636    -0.77800
C63         C  0.41333710  0.41620759  0.21729374     1.02800
O64         O  0.45776522  0.40990463  0.28970006    -0.85100
O65         O  0.06649171  0.45798809  0.27768398    -0.82200
C66         C  0.08062406  0.99467062  0.29557492     0.98400
O67         O  0.08361171  0.04057745  0.29045159    -0.82200
O68         O  0.04404278  0.10654713  0.27713205    -0.84800
C69         C  0.00452536  0.08407786  0.29465656     1.02800
O70         O  0.45918650  0.04012710  0.28955070    -0.77600
O71         O  0.39547315  0.43114746  0.27874225    -0.77800
C72         C  0.41594973  0.41327397  0.29577489     1.02800
Cr73       Cr  0.49818487  0.43209076  0.25552620     1.93700
Cr74       Cr  0.06965981  0.06215852  0.25593251     1.93200
Cr75       Cr  0.44122419  0.50190978  0.25567484     1.39100
O76         O  0.00278288  0.99859185  0.25564012    -1.22900
C77         C  0.11524597  0.00314938  0.09761892     0.16200
C78         C  0.08004394  0.99489445  0.11960221    -0.32900
C79         C  0.10331778  0.00504904  0.14480737     0.20600
C80         C  0.15958790  0.02481017  0.14822396     0.02800
C81         C  0.19505752  0.03362176  0.12610134    -0.22600
C82         C  0.17115829  0.02122790  0.10087554     0.11900
S83         S  0.09390913  0.98937465  0.06556015    -0.06300
C84         C  0.16085229  0.00697246  0.05633035    -0.09700
C85         C  0.19737506  0.02293390  0.07726619    -0.26300
S86         S  0.17859752  0.03277750  0.18092598    -0.03500
C87         C  0.10940185  0.00655333  0.18963801    -0.17000
C88         C  0.07447447  0.99448262  0.16845332    -0.15000
H89         H  0.03599046  0.97926530  0.11727330     0.20400
H90         H  0.23874921  0.54763131  0.12849065     0.16400
H91         H  0.24082273  0.03479519  0.07522159     0.18900
H92         H  0.02984197  0.97777887  0.17034308     0.12300
C93         C  0.09824929  0.95245154  0.36620881     0.16200
C94         C  0.10890402  0.93088686  0.38922301    -0.32900
C95         C  0.10804338  0.95484046  0.41366825     0.20600
C96         C  0.09459533  0.99639047  0.41545205     0.02800
C97         C  0.08338844  0.01745701  0.39253879    -0.22600
C98         C  0.08701639  0.99551154  0.36803497     0.11900
S99         S  0.10034299  0.93194877  0.33419333    -0.06300
C100        C  0.08856939  0.98394082  0.32337338    -0.09700
C101        C  0.08197858  0.01392214  0.34364305    -0.26300
S102        S  0.10094928  0.02370984  0.44647627    -0.03500
C103        C  0.12508919  0.98103621  0.45667687    -0.17000
C104        C  0.12528637  0.94566803  0.43740224    -0.15000
H105        H  0.11996161  0.89890989  0.38800204     0.20400
H106        H  0.07494538  0.55135797  0.39360510     0.16400
H107        H  0.07310726  0.54729785  0.34070646     0.18900
H108        H  0.14162015  0.91816103  0.44003812     0.12300
C109        C  0.98783129  0.09567124  0.41449341     0.16200
C110        C  0.96457541  0.06553077  0.39138664    -0.32900
C111        C  0.99193286  0.09105451  0.36688910     0.20600
C112        C  0.04155208  0.14320450  0.36520519     0.02800
C113        C  0.06501927  0.17349425  0.38840393    -0.22600
C114        C  0.03642798  0.14881852  0.41293619     0.11900
S115        S  0.95698877  0.07491611  0.44574201    -0.06300
C116        C  0.00866867  0.13958523  0.45662370    -0.09700
C117        C  0.04865815  0.17410098  0.43717024    -0.26300
S118        S  0.06872143  0.16512544  0.33320963    -0.03500
C119        C  0.01133753  0.10409415  0.32218950    -0.17000
C120        C  0.97418911  0.06903968  0.34243269    -0.15000
H121        H  0.92572582  0.02483495  0.39235647     0.20400
H122        H  0.60285913  0.21506965  0.38733067     0.16400
H123        H  0.08235102  0.21723400  0.44019876     0.18900
H124        H  0.93682392  0.02816556  0.33949665     0.12300
C125        C  0.46053017  0.12232761  0.10365973     0.16200
C126        C  0.44093343  0.10874214  0.13040218    -0.32900
C127        C  0.47941739  0.11497544  0.14958185     0.20600
C128        C  0.03467120  0.13373849  0.14229080     0.02800
C129        C  0.05374986  0.14595074  0.11560570    -0.22600
C130        C  0.01541736  0.13959450  0.09652185     0.11900
S131        S  0.42269008  0.12342225  0.07772569    -0.06300
C132        C  0.98198585  0.14857906  0.05710230    -0.09700
C133        C  0.02727720  0.15252915  0.06983281    -0.26300
S134        S  0.07483048  0.13745527  0.16795457    -0.03500
C135        C  0.01646283  0.11204049  0.18895671    -0.17000
C136        C  0.46862102  0.10251749  0.17652440    -0.15000
H137        H  0.39790711  0.09476329  0.13604104     0.20400
H138        H  0.09688786  0.16028677  0.10997706     0.16400
H139        H  0.06831780  0.16857754  0.06043309     0.18900
H140        H  0.42761108  0.08421551  0.18628927     0.12300
C141        C  0.36237329  0.40238268  0.36782087     0.16200
C142        C  0.33513485  0.40140726  0.39177364    -0.32900
C143        C  0.35926074  0.39931028  0.41565568     0.20600
C144        C  0.40907255  0.39980224  0.41586136     0.02800
C145        C  0.43657978  0.40142456  0.39195466    -0.22600
C146        C  0.41145531  0.40161260  0.36814777     0.11900
S147        S  0.33984605  0.40396270  0.33647866    -0.06300
C148        C  0.39671045  0.40234365  0.32389319    -0.09700
C149        C  0.43069080  0.40068977  0.34314916    -0.26300
S150        S  0.42751243  0.38951967  0.44669534    -0.03500
C151        C  0.36631013  0.38223505  0.45916051    -0.17000
C152        C  0.33500086  0.38998157  0.44056582    -0.15000
H153        H  0.29580992  0.40022369  0.39182138     0.20400
H154        H  0.47444533  0.39982982  0.39189618     0.16400
H155        H  0.46918280  0.40126520  0.33905385     0.18900
H156        H  0.29347237  0.38266084  0.44458075     0.12300
C157        C  0.37405742  0.34683585  0.14935012     0.16200
C158        C  0.36539154  0.31470460  0.12661629    -0.32900
C159        C  0.35793048  0.33568961  0.10245367     0.20600
C160        C  0.35926852  0.38638339  0.10087591     0.02800
C161        C  0.36775451  0.41842279  0.12356265    -0.22600
C162        C  0.37469759  0.39719703  0.14770793     0.11900
S163        S  0.38660712  0.33043774  0.18043630    -0.06300
C164        C  0.39231118  0.39199849  0.19120267    -0.09700
C165        C  0.38448175  0.42284179  0.17164144    -0.26300
S166        S  0.34780236  0.40360127  0.06991920    -0.03500
C167        C  0.34035054  0.34129092  0.05885157    -0.17000
C168        C  0.34729905  0.30970770  0.07847435    -0.15000
H169        H  0.36458867  0.27518503  0.12767906     0.20400
H170        H  0.36876126  0.45808794  0.12247918     0.16400
H171        H  0.38853852  0.46359698  0.17445951     0.18900
H172        H  0.34253398  0.26869853  0.07608859     0.12300
C173        C  0.31933446  0.21379095  0.98419249     0.03300
C174        C  0.27830067  0.15636058  0.48154439    -0.12800
C175        C  0.29275940  0.11440590  0.48135860     0.00800
C176        C  0.34968143  0.13151630  0.48048329    -0.11300
C177        C  0.39204685  0.18909005  0.98293012     0.03300
C178        C  0.37639818  0.22984031  0.98404924    -0.10700
H179        H  0.23462976  0.14331914  0.48458461     0.08900
H180        H  0.36051565  0.09941860  0.48288982     0.06500
H181        H  0.40779992  0.27293224  0.98886903     0.06300
C182        C  0.20567513  0.31512478  0.49227425     0.03300
C183        C  0.22585164  0.37381668  0.49150823    -0.12800
C184        C  0.18887393  0.39375778  0.49119766     0.00800
C185        C  0.13062171  0.35416468  0.49066058    -0.11300
C186        C  0.10932421  0.29566416  0.49163523     0.03300
C187        C  0.14741227  0.27654189  0.49207941    -0.10700
H188        H  0.27005093  0.40382598  0.49413130     0.08900
H189        H  0.10160719  0.36883014  0.49265287     0.06500
H190        H  0.13143979  0.23172308  0.49509343     0.06300
C191        C  0.32152996  0.32163643  0.53093322     0.86700
C192        C  0.31951049  0.26762166  0.52268042    -0.53500
C193        C  0.30304989  0.25185589  0.49725478     0.09600
C194        C  0.28614661  0.29064242  0.98284590     0.20600
C195        C  0.35868531  0.36587948  0.50885127    -0.54300
C196        C  0.33937671  0.34936234  0.98378697     0.09700
C197        C  0.26243267  0.30979953  0.52683488    -0.53800
C198        C  0.24397009  0.29607324  0.50147974     0.10300
H199        H  0.33642662  0.24707094  0.53433615     0.14800
H200        H  0.27093456  0.27685674  0.96240596     0.00600
H201        H  0.39623581  0.40627782  0.51267697     0.15600
H202        H  0.24060264  0.32029646  0.54174625     0.14900
C203        C  0.98796227  0.17306915  0.52909424     0.86700
C204        C  0.99407286  0.13851369  0.50661429    -0.53500
C205        C  0.00176405  0.16284226  0.98164481     0.09600
C206        C  0.00169556  0.21811432  0.98132089     0.20600
C207        C  0.03987819  0.23277513  0.52555568    -0.54300
C208        C  0.04945468  0.25573058  0.50034934     0.09700
C209        C  0.43943083  0.17951544  0.52089395    -0.53800
C210        C  0.44483540  0.20131033  0.49572862     0.10300
H211        H  0.99297208  0.09916628  0.51015615     0.14800
H212        H  0.00707027  0.23760346  0.96110043     0.00600
H213        H  0.07108981  0.25206770  0.54075443     0.15100
H214        H  0.40075523  0.16281935  0.53275131     0.14900
C215        C  0.17908897  0.00419394  0.52818264     0.86700
C216        C  0.19209531  0.45731457  0.52500528    -0.53500
C217        C  0.20831549  0.45265016  0.49968886     0.09600
C218        C  0.21536346  0.00044626  0.98033795     0.20600
C219        C  0.23253344  0.05844449  0.51937223    -0.54300
C220        C  0.25148572  0.05823693  0.49417181     0.09700
C221        C  0.13726448  0.99409836  0.50606772    -0.53800
C222        C  0.15659980  0.99164892  0.98108488     0.10300
H223        H  0.17976357  0.42441682  0.54036819     0.14800
H224        H  0.23178323  0.99958766  0.96004341     0.00600
H225        H  0.25144214  0.09620224  0.53133823     0.15100
H226        H  0.09634474  0.98869417  0.50962122     0.14900
O227        O  0.42843691  0.39235905  0.73398067    -0.85100
O228        O  0.03855160  0.45156425  0.72113315    -0.82200
C229        C  0.08608083  0.99534104  0.71688406     0.98300
O230        O  0.10938723  0.03082525  0.73507979    -0.82200
O231        O  0.05813796  0.08686035  0.72142123    -0.84900
C232        C  0.01664017  0.09054337  0.71587077     1.02900
O233        O  0.47550284  0.07323133  0.73248142    -0.77600
O234        O  0.41893492  0.46312034  0.72200696    -0.77800
C235        C  0.41327917  0.41609136  0.71729170     1.02800
O236        O  0.45767825  0.40975262  0.78969637    -0.85100
O237        O  0.06640601  0.45782182  0.77769237    -0.82200
C238        C  0.08071754  0.99479156  0.79557380     0.98400
O239        O  0.08368332  0.04068962  0.79045330    -0.82200
O240        O  0.04407033  0.10662699  0.77713731    -0.84800
C241        C  0.00454697  0.08414548  0.79465864     1.02800
O242        O  0.45921591  0.04018809  0.78955005    -0.77600
O243        O  0.39541007  0.43103199  0.77874214    -0.77800
C244        C  0.41587160  0.41313652  0.79577210     1.02800
Cr245      Cr  0.49811405  0.43194543  0.75552705     1.93700
Cr246      Cr  0.06971415  0.06226476  0.75593468     1.93200
Cr247      Cr  0.44118087  0.50179208  0.75567509     1.39100
O248        O  0.00284924  0.99868490  0.75564240    -1.22900
C249        C  0.11529294  0.00318711  0.59761943     0.16200
C250        C  0.08009583  0.99493305  0.61960435    -0.32900
C251        C  0.10338393  0.00512921  0.64480654     0.20600
C252        C  0.15966338  0.02493023  0.64821898     0.02800
C253        C  0.19512950  0.03374010  0.62609383    -0.22600
C254        C  0.17121580  0.02130369  0.60087049     0.11900
S255        S  0.09393662  0.98937024  0.56556528    -0.06300
C256        C  0.16088625  0.00700359  0.55632726    -0.09700
C257        C  0.19742598  0.02300402  0.57725862    -0.26300
S258        S  0.17868618  0.03294227  0.68092038    -0.03500
C259        C  0.10948347  0.00667706  0.68963705    -0.17000
C260        C  0.07454555  0.99456631  0.66845377    -0.15000
H261        H  0.03603508  0.97927374  0.61727916     0.20400
H262        H  0.23875820  0.54758784  0.62850901     0.16400
H263        H  0.24088130  0.03489269  0.57520902     0.18900
H264        H  0.02990824  0.97783401  0.67034541     0.12300
C265        C  0.09833840  0.95254244  0.86620177     0.16200
C266        C  0.10897659  0.93095864  0.88921446    -0.32900
C267        C  0.10810975  0.95490081  0.91366227     0.20600
C268        C  0.09467249  0.99645849  0.91544928     0.02800
C269        C  0.08347902  0.01754112  0.89253799    -0.22600
C270        C  0.08711262  0.99560685  0.86803229     0.11900
S271        S  0.10043981  0.93205679  0.83418363    -0.06300
C272        C  0.08867565  0.98405998  0.82336973    -0.09700
C273        C  0.08208457  0.01403341  0.84364271    -0.26300
S274        S  0.10101886  0.02376443  0.94647570    -0.03500
C275        C  0.12513572  0.98107030  0.95667421    -0.17000
C276        C  0.12533469  0.94570814  0.93739693    -0.15000
H277        H  0.12002602  0.89897548  0.88799082     0.20400
H278        H  0.07484349  0.55123026  0.89359893     0.16400
H279        H  0.07301426  0.54714491  0.84070531     0.18900
H280        H  0.14165498  0.91818922  0.94003268     0.12300
C281        C  0.98783988  0.09570185  0.91449432     0.16200
C282        C  0.96458123  0.06557160  0.89138577    -0.32900
C283        C  0.99193597  0.09110607  0.86688951     0.20600
C284        C  0.04155168  0.14325999  0.86520809     0.02800
C285        C  0.06502148  0.17353943  0.88840863    -0.22600
C286        C  0.03643687  0.14884938  0.91294015     0.11900
S287        S  0.95700365  0.07492996  0.94574304    -0.06300
C288        C  0.00868979  0.13958981  0.95662962    -0.09700
C289        C  0.04867582  0.17411595  0.93717746    -0.26300
S290        S  0.06872057  0.16519332  0.83321377    -0.03500
C291        C  0.01134530  0.10415806  0.82219127    -0.17000
C292        C  0.97419694  0.06909543  0.84243233    -0.15000
H293        H  0.92573394  0.02487230  0.89235375     0.20400
H294        H  0.60286069  0.21511545  0.88733769     0.16400
H295        H  0.08237058  0.21724639  0.94020973     0.18900
H296        H  0.93683724  0.02821581  0.83949441     0.12300
C297        C  0.46050628  0.12236513  0.60365587     0.16200
C298        C  0.44091750  0.10878552  0.63040044    -0.32900
C299        C  0.47940467  0.11501021  0.64957759     0.20600
C300        C  0.03465287  0.13375975  0.64228151     0.02800
C301        C  0.05372241  0.14596531  0.61559509    -0.22600
C302        C  0.01538792  0.13961756  0.59651425     0.11900
S303        S  0.42266584  0.12346836  0.57772267    -0.06300
C304        C  0.98195452  0.14860621  0.55709536    -0.09700
C305        C  0.02724280  0.15254667  0.56982446    -0.26300
S306        S  0.07482074  0.13747655  0.66794138    -0.03500
C307        C  0.01646672  0.11208382  0.68895076    -0.17000
C308        C  0.46862045  0.10256260  0.67652226    -0.15000
H309        H  0.39789504  0.09481829  0.63604281     0.20400
H310        H  0.09685651  0.16029136  0.60996311     0.16400
H311        H  0.06827944  0.16858325  0.56042256     0.18900
H312        H  0.42761630  0.08427557  0.68629223     0.12300
C313        C  0.36233060  0.40228397  0.86782147     0.16200
C314        C  0.33512370  0.40135317  0.89177710    -0.32900
C315        C  0.35926031  0.39926131  0.91565662     0.20600
C316        C  0.40905172  0.39971275  0.91585658     0.02800
C317        C  0.43652384  0.40128352  0.89194707    -0.22600
C318        C  0.41138960  0.40146998  0.86814336     0.11900
S319        S  0.33979746  0.40387162  0.83648144    -0.06300
C320        C  0.39662976  0.40219998  0.82389033    -0.09700
C321        C  0.43060010  0.40051684  0.84314331    -0.26300
S322        S  0.42750742  0.38944811  0.94668983    -0.03500
C323        C  0.36633582  0.38222136  0.95916341    -0.17000
C324        C  0.33502779  0.38997654  0.94057112    -0.15000
H325        H  0.29581541  0.40020460  0.89182936     0.20400
H326        H  0.47437138  0.39965546  0.89188488     0.16400
H327        H  0.46907485  0.40106110  0.83904476     0.18900
H328        H  0.29351278  0.38268708  0.94459199     0.12300
C329        C  0.37402691  0.34676104  0.64934059     0.16200
C330        C  0.36538372  0.31465160  0.62660096    -0.32900
C331        C  0.35791360  0.33564297  0.60244267     0.20600
C332        C  0.35922779  0.38632529  0.60087402     0.02800
C333        C  0.36769001  0.41834224  0.62356674    -0.22600
C334        C  0.37463610  0.39710694  0.64770821     0.11900
S335        S  0.38658487  0.33035397  0.68042263    -0.06300
C336        C  0.39224904  0.39188932  0.69120066    -0.09700
C337        C  0.38439890  0.42273038  0.67164652    -0.26300
S338        S  0.34775575  0.40355363  0.56992104    -0.03500
C339        C  0.34032178  0.34125715  0.55884381    -0.17000
C340        C  0.34728955  0.30967515  0.57845990    -0.15000
H341        H  0.36460222  0.27514272  0.62765642     0.20400
H342        H  0.36867479  0.45799674  0.62249073     0.16400
H343        H  0.38843195  0.46347285  0.67447233     0.18900
H344        H  0.34254103  0.26867495  0.57606779     0.12300
C345        C  0.31932656  0.71380873  0.48418405     0.03300
C346        C  0.27830536  0.65636334  0.98154390    -0.12800
C347        C  0.29275459  0.61439950  0.98135093     0.00800
C348        C  0.34967108  0.63149674  0.98047166    -0.11300
C349        C  0.39204766  0.68911525  0.48291623     0.03300
C350        C  0.37639216  0.72986118  0.48404466    -0.10700
H351        H  0.23463649  0.64332786  0.98458314     0.08900
H352        H  0.36049643  0.59938982  0.98286885     0.06500
H353        H  0.40778925  0.77294959  0.48887129     0.06300
C354        C  0.20564537  0.81510942  0.99227067     0.03300
C355        C  0.22581117  0.87380212  0.99152336    -0.12800
C356        C  0.18882377  0.89373435  0.99121326     0.00800
C357        C  0.13057661  0.85413306  0.99066419    -0.11300
C358        C  0.10929309  0.79563518  0.99162375     0.03300
C359        C  0.14738737  0.77652193  0.99206055    -0.10700
H360        H  0.27000588  0.90381400  0.99415659     0.08900
H361        H  0.10155251  0.86878697  0.99265809     0.06500
H362        H  0.13142021  0.73170129  0.99506219     0.06300
C363        C  0.32150163  0.82165075  0.03092727     0.86700
C364        C  0.31952752  0.76765708  0.02267466    -0.53500
C365        C  0.30306832  0.75187647  0.99725057     0.09600
C366        C  0.28612789  0.79065850  0.48283823     0.20600
C367        C  0.35863323  0.86590349  0.00884488    -0.54300
C368        C  0.33935367  0.84938130  0.48378320     0.09700
C369        C  0.26238789  0.80976706  0.02683087    -0.53800
C370        C  0.24393160  0.79604285  0.00147460     0.10300
H371        H  0.33645789  0.74712317  0.03433236     0.14800
H372        H  0.27092027  0.77687801  0.46239720     0.00600
H373        H  0.39616534  0.90631769  0.01267010     0.15600
H374        H  0.24054561  0.82024801  0.04174255     0.14900
C375        C  0.98796799  0.67302798  0.02909143     0.86700
C376        C  0.99408779  0.63847301  0.00661522    -0.53500
C377        C  0.00173976  0.66281292  0.48165057     0.09600
C378        C  0.00168111  0.71809238  0.48130962     0.20600
C379        C  0.03987008  0.73274171  0.02554771    -0.54300
C380        C  0.04943239  0.75568725  0.00033987     0.09700
C381        C  0.43942204  0.67945181  0.02089040    -0.53800
C382        C  0.44482160  0.70124650  0.99572495     0.10300
H383        H  0.99300258  0.59913437  0.01016053     0.14800
H384        H  0.00705826  0.73755891  0.46108338     0.00600
H385        H  0.07108388  0.75205081  0.04074450     0.15100
H386        H  0.40075013  0.66275782  0.03275034     0.14900
C387        C  0.17909615  0.50416444  0.02817200     0.86700
C388        C  0.19200494  0.95728914  0.02501941    -0.53500
C389        C  0.20824255  0.95262249  0.99970663     0.09600
C390        C  0.21540629  0.50046384  0.48032261     0.20600
C391        C  0.23252825  0.55842695  0.01936277    -0.54300
C392        C  0.25148294  0.55822796  0.99416167     0.09700
C393        C  0.13726802  0.49405262  0.00605715    -0.53800
C394        C  0.15663228  0.49163720  0.48107584     0.10300
H395        H  0.17965197  0.92438802  0.04038281     0.14800
H396        H  0.23182622  0.49961501  0.46002655     0.00600
H397        H  0.25142739  0.59618181  0.03133039     0.15100
H398        H  0.09634063  0.48863057  0.00961010     0.14900
O399        O  0.42848370  0.89239302  0.23397194    -0.85100
O400        O  0.03859269  0.95162572  0.22113111    -0.82200
C401        C  0.08601094  0.49529040  0.21687186     0.98300
O402        O  0.10934026  0.53077938  0.23506474    -0.82200
O403        O  0.05815523  0.58687988  0.22141859    -0.84900
C404        C  0.01667435  0.59059272  0.21586991     1.02900
O405        O  0.47552896  0.57327950  0.23247554    -0.77600
O406        O  0.41893850  0.96313361  0.22201040    -0.77800
C407        C  0.41331949  0.91612523  0.21728500     1.02800
O408        O  0.45772537  0.90978155  0.28969672    -0.85100
O409        O  0.06645331  0.95789341  0.27769155    -0.82200
C410        C  0.08066410  0.49475887  0.29557014     0.98400
O411        O  0.08366405  0.54067122  0.29044826    -0.82200
O412        O  0.04411127  0.60665173  0.27713841    -0.84800
C413        C  0.00458360  0.58418700  0.29465839     1.02800
O414        O  0.45923597  0.54025195  0.28954490    -0.77600
O415        O  0.39543359  0.93102653  0.27874352    -0.77800
C416        C  0.41591483  0.91315604  0.29577507     1.02800
Cr417      Cr  0.49815598  0.93199096  0.25552453     1.93700
Cr418      Cr  0.06971030  0.56225831  0.25592903     1.93200
Cr419      Cr  0.44117618  0.00179450  0.25567969     1.39100
O420        O  0.00282603  0.49869867  0.25563782    -1.22900
C421        C  0.11525120  0.50308901  0.09760405     0.16200
C422        C  0.08004021  0.49481794  0.11958592    -0.32900
C423        C  0.10331819  0.50501567  0.14479094     0.20600
C424        C  0.15959809  0.52482650  0.14820817     0.02800
C425        C  0.19507604  0.53364846  0.12608651    -0.22600
C426        C  0.17117578  0.52121953  0.10086052     0.11900
S427        S  0.09391461  0.48928892  0.06554680    -0.06300
C428        C  0.16087721  0.50695514  0.05631498    -0.09700
C429        C  0.19740563  0.52294967  0.07725026    -0.26300
S430        S  0.17861395  0.53285556  0.18091058    -0.03500
C431        C  0.10941014  0.50659241  0.18962351    -0.17000
C432        C  0.07447402  0.49446114  0.16843674    -0.15000
H433        H  0.03598037  0.47915410  0.11725592     0.20400
H434        H  0.23872072  0.04756085  0.12850469     0.16400
H435        H  0.24086567  0.53485417  0.07520454     0.18900
H436        H  0.02983652  0.47772982  0.17032501     0.12300
C437        C  0.09831401  0.45252023  0.36619490     0.16200
C438        C  0.10900857  0.43096696  0.38920039    -0.32900
C439        C  0.10812638  0.45488609  0.41365239     0.20600
C440        C  0.09461732  0.49638938  0.41545179     0.02800
C441        C  0.08337178  0.51744681  0.39254628    -0.22600
C442        C  0.08702360  0.49553847  0.36803446     0.11900
S443        S  0.10043353  0.43205703  0.33417447    -0.06300
C444        C  0.08859712  0.48401268  0.32336836    -0.09700
C445        C  0.08196329  0.51395204  0.34364631    -0.26300
S446        S  0.10094280  0.52366638  0.44648505    -0.03500
C447        C  0.12515438  0.48104229  0.45666693    -0.17000
C448        C  0.12539623  0.44571930  0.43737967    -0.15000
H449        H  0.12011283  0.39902565  0.38796760     0.20400
H450        H  0.07500869  0.05140236  0.39358579     0.16400
H451        H  0.07316145  0.04729595  0.34069522     0.18900
H452        H  0.14176981  0.41824402  0.44000366     0.12300
C453        C  0.98785183  0.59566100  0.41450347     0.16200
C454        C  0.96458171  0.56556610  0.39138701    -0.32900
C455        C  0.99196284  0.59110555  0.36689523     0.20600
C456        C  0.04162317  0.64321971  0.36522613     0.02800
C457        C  0.06510456  0.67346438  0.38843462    -0.22600
C458        C  0.03648440  0.64878077  0.41296101     0.11900
S459        S  0.95697775  0.57489886  0.44574623    -0.06300
C460        C  0.00868362  0.63953816  0.45664427    -0.09700
C461        C  0.04871131  0.67404145  0.43720117    -0.26300
S462        S  0.06882062  0.66515702  0.33323507    -0.03500
C463        C  0.01139229  0.60418575  0.32219625    -0.17000
C464        C  0.97420792  0.56913885  0.34243129    -0.15000
H465        H  0.92570135  0.52489675  0.39234547     0.20400
H466        H  0.60297428  0.71501697  0.38737281     0.16400
H467        H  0.08242342  0.71715987  0.44023891     0.18900
H468        H  0.93680974  0.52829474  0.33948431     0.12300
C469        C  0.46054904  0.62237309  0.10365720     0.16200
C470        C  0.44096615  0.60881274  0.13040227    -0.32900
C471        C  0.47946224  0.61507432  0.14958102     0.20600
C472        C  0.03471539  0.63384028  0.14228723     0.02800
C473        C  0.05378252  0.64603313  0.11559993    -0.22600
C474        C  0.01543723  0.63964847  0.09651682     0.11900
S475        S  0.42268880  0.62342446  0.07772158    -0.06300
C476        C  0.98197846  0.64858012  0.05709423    -0.09700
C477        C  0.02728267  0.65255824  0.06982515    -0.26300
S478        S  0.07488481  0.63757449  0.16795047    -0.03500
C479        C  0.01652185  0.61216422  0.18895564    -0.17000
C480        C  0.46867603  0.60263322  0.17652487    -0.15000
H481        H  0.39793875  0.59482742  0.13604356     0.20400
H482        H  0.09691964  0.66037176  0.10996878     0.16400
H483        H  0.06832120  0.66860982  0.06042304     0.18900
H484        H  0.42766737  0.58432945  0.18629172     0.12300
C485        C  0.36238174  0.90234394  0.36782213     0.16200
C486        C  0.33515861  0.90140694  0.39177301    -0.32900
C487        C  0.35928391  0.89932079  0.41565683     0.20600
C488        C  0.40908569  0.89979314  0.41586547     0.02800
C489        C  0.43658155  0.90138230  0.39195995    -0.22600
C490        C  0.41145319  0.90155407  0.36815119     0.11900
S491        S  0.33984309  0.90389617  0.33647990    -0.06300
C492        C  0.39668878  0.90224272  0.32389565    -0.09700
C493        C  0.43067265  0.90059599  0.34315268    -0.26300
S494        S  0.42751877  0.88951731  0.44670240    -0.03500
C495        C  0.36632279  0.88225307  0.45916372    -0.17000
C496        C  0.33502475  0.89001000  0.44056659    -0.15000
H497        H  0.29584113  0.90023879  0.39181832     0.20400
H498        H  0.47443715  0.89977074  0.39190453     0.16400
H499        H  0.46915595  0.90115590  0.33905762     0.18900
H500        H  0.29350061  0.88270265  0.44457969     0.12300
C501        C  0.37411617  0.84685043  0.14931949     0.16200
C502        C  0.36546425  0.81474207  0.12657980    -0.32900
C503        C  0.35795405  0.83571586  0.10242717     0.20600
C504        C  0.35923810  0.88638300  0.10086212     0.02800
C505        C  0.36772665  0.91841088  0.12355461    -0.22600
C506        C  0.37471209  0.89718983  0.14769217     0.11900
S507        S  0.38667566  0.83043177  0.18039823    -0.06300
C508        C  0.39232375  0.89195270  0.19118491    -0.09700
C509        C  0.38447641  0.92280432  0.17163370    -0.26300
S510        S  0.34769489  0.90357164  0.06991473    -0.03500
C511        C  0.34029301  0.84128763  0.05883623    -0.17000
C512        C  0.34731029  0.80973550  0.07844817    -0.15000
H513        H  0.36469528  0.77523937  0.12763206     0.20400
H514        H  0.36869084  0.95805497  0.12248252     0.16400
H515        H  0.38849509  0.96353847  0.17446599     0.18900
H516        H  0.34258776  0.76874634  0.07605655     0.12300
C517        C  0.31932800  0.71380017  0.98417237     0.03300
C518        C  0.27831563  0.65636701  0.48156005    -0.12800
C519        C  0.29278326  0.61441727  0.48136521     0.00800
C520        C  0.34970478  0.63153279  0.48048131    -0.11300
C521        C  0.39202550  0.68907363  0.98290964     0.03300
C522        C  0.37638812  0.72983339  0.98403790    -0.10700
H523        H  0.23464347  0.64331806  0.48460291     0.08900
H524        H  0.36054442  0.59943699  0.48287808     0.06500
H525        H  0.40779401  0.77291749  0.98886673     0.06300
C526        C  0.20567859  0.81514901  0.49227382     0.03300
C527        C  0.22583746  0.87383900  0.49151827    -0.12800
C528        C  0.18884422  0.89376321  0.49120587     0.00800
C529        C  0.13059794  0.85415683  0.49066027    -0.11300
C530        C  0.10932039  0.79566060  0.49162764     0.03300
C531        C  0.14742052  0.77655465  0.49206940    -0.10700
H532        H  0.27003227  0.90385668  0.49414810     0.08900
H533        H  0.10157047  0.86880683  0.49265185     0.06500
H534        H  0.13145884  0.73173680  0.49507794     0.06300
C535        C  0.32153131  0.82166773  0.53093687     0.86700
C536        C  0.31951194  0.76764862  0.52268869    -0.53500
C537        C  0.30305533  0.75187411  0.49726335     0.09600
C538        C  0.28610113  0.79063412  0.98282928     0.20600
C539        C  0.35868509  0.86590461  0.50885337    -0.54300
C540        C  0.33930189  0.84937582  0.98377476     0.09700
C541        C  0.26243381  0.80982720  0.52683686    -0.53800
C542        C  0.24397510  0.79609928  0.50148116     0.10300
H543        H  0.33641957  0.74709521  0.53434790     0.14800
H544        H  0.27089505  0.77684835  0.96238858     0.00600
H545        H  0.39623420  0.90630529  0.51267805     0.15600
H546        H  0.24060167  0.82032458  0.54174668     0.14900
C547        C  0.98797660  0.67307728  0.52910527     0.86700
C548        C  0.99407391  0.63849874  0.50663299    -0.53500
C549        C  0.00174405  0.66279504  0.98163580     0.09600
C550        C  0.00166151  0.71806171  0.98130117     0.20600
C551        C  0.03989579  0.73277648  0.52555584    -0.54300
C552        C  0.04946078  0.75571296  0.50034593     0.09700
C553        C  0.43944668  0.67952559  0.52090213    -0.53800
C554        C  0.44484852  0.70130655  0.49573333     0.10300
H555        H  0.99297604  0.59915529  0.51018361     0.14800
H556        H  0.00703168  0.73753389  0.96107697     0.00600
H557        H  0.07111274  0.75208034  0.54075172     0.15100
H558        H  0.40077658  0.66284642  0.53276213     0.14900
C559        C  0.17912806  0.50416924  0.52817995     0.86700
C560        C  0.19203872  0.95732438  0.52501126    -0.53500
C561        C  0.20825849  0.95265118  0.49969544     0.09600
C562        C  0.21536610  0.50044433  0.98031481     0.20600
C563        C  0.23256725  0.55843034  0.51937656    -0.54300
C564        C  0.25152584  0.55823957  0.49417517     0.09700
C565        C  0.13730775  0.49407524  0.50606183    -0.53800
C566        C  0.15658599  0.49160544  0.98107210     0.10300
H567        H  0.17970719  0.92443246  0.54037695     0.14800
H568        H  0.23177741  0.49958853  0.96001766     0.00600
H569        H  0.25146372  0.59618138  0.53134668     0.15100
H570        H  0.09638402  0.48866183  0.50961353     0.14900
O571        O  0.42857503  0.89247784  0.73397881    -0.85100
O572        O  0.03868499  0.95173870  0.72113485    -0.82200
C573        C  0.08596635  0.49514101  0.71688343     0.98300
O574        O  0.10929133  0.53062038  0.73507988    -0.82200
O575        O  0.05812517  0.58673725  0.72142121    -0.84900
C576        C  0.01665291  0.59046436  0.71587049     1.02900
O577        O  0.47550862  0.57316466  0.73247578    -0.77600
O578        O  0.41901363  0.96320292  0.72200851    -0.77800
C579        C  0.41341460  0.91620238  0.71728580     1.02800
O580        O  0.45781624  0.90988658  0.78970411    -0.85100
O581        O  0.06655226  0.95801733  0.77769020    -0.82200
C582        C  0.08057584  0.49459029  0.79557932     0.98400
O583        O  0.08359487  0.54051213  0.79045603    -0.82200
O584        O  0.04407386  0.60652186  0.77713636    -0.84800
C585        C  0.00454338  0.58406904  0.79465483     1.02800
O586        O  0.45919603  0.54013219  0.78954444    -0.77600
O587        O  0.39549638  0.93108306  0.77873809    -0.77800
C588        C  0.41598535  0.91323291  0.79577527     1.02800
Cr589      Cr  0.49824710  0.93209617  0.75552919     1.93700
Cr590      Cr  0.06966340  0.56211141  0.75593487     1.93200
Cr591      Cr  0.44122610  0.00185940  0.75567853     1.39100
O592        O  0.00277164  0.49856105  0.75564045    -1.22900
C593        C  0.11526126  0.50302549  0.59761637     0.16200
C594        C  0.08003769  0.49471776  0.61959791    -0.32900
C595        C  0.10330656  0.50490116  0.64480436     0.20600
C596        C  0.15959001  0.52473408  0.64822467     0.02800
C597        C  0.19508080  0.53358810  0.62610322    -0.22600
C598        C  0.17118939  0.52117270  0.60087449     0.11900
S599        S  0.09393535  0.48925162  0.56555677    -0.06300
C600        C  0.16090583  0.50694714  0.55632463    -0.09700
C601        C  0.19743016  0.52293339  0.57726218    -0.26300
S602        S  0.17859329  0.53275405  0.68092942    -0.03500
C603        C  0.10937903  0.50645159  0.68963740    -0.17000
C604        C  0.07444991  0.49431756  0.66844794    -0.15000
H605        H  0.03597530  0.47903936  0.61726598     0.20400
H606        H  0.23880121  0.04771024  0.62849387     0.16400
H607        H  0.24089466  0.53485074  0.57521673     0.18900
H608        H  0.02980881  0.47756981  0.67033245     0.12300
C609        C  0.09816159  0.45233871  0.86621280     0.16200
C610        C  0.10885420  0.43079803  0.88922326    -0.32900
C611        C  0.10799715  0.45475090  0.91366866     0.20600
C612        C  0.09450223  0.49626618  0.91545810     0.02800
C613        C  0.08325166  0.51730511  0.89254863    -0.22600
C614        C  0.08688988  0.49537139  0.86804287     0.11900
S615        S  0.10028219  0.43185848  0.83419599    -0.06300
C616        C  0.08847939  0.48383207  0.82337995    -0.09700
C617        C  0.08184806  0.51378337  0.84365179    -0.26300
S618        S  0.10087017  0.52359454  0.94648093    -0.03500
C619        C  0.12508603  0.48097942  0.95667007    -0.17000
C620        C  0.12529514  0.44561947  0.93739501    -0.15000
H621        H  0.11995040  0.39884962  0.88799801     0.20400
H622        H  0.07510457  0.05148954  0.89358816     0.16400
H623        H  0.07326835  0.04740779  0.84069918     0.18900
H624        H  0.14166876  0.41814560  0.94002455     0.12300
C625        C  0.98782978  0.59562949  0.91449193     0.16200
C626        C  0.96456177  0.56550989  0.89138154    -0.32900
C627        C  0.99192795  0.59103861  0.86688617     0.20600
C628        C  0.04156812  0.64317048  0.86520780     0.02800
C629        C  0.06504615  0.67344038  0.88841010    -0.22600
C630        C  0.03644502  0.64876262  0.91294024     0.11900
S631        S  0.95697896  0.57487205  0.94573869    -0.06300
C632        C  0.00867614  0.63952596  0.95662643    -0.09700
C633        C  0.04868043  0.67403506  0.93717690    -0.26300
S634        S  0.06875213  0.66509234  0.83321443    -0.03500
C635        C  0.01134778  0.60408674  0.82218761    -0.17000
C636        C  0.97417902  0.56904169  0.84242721    -0.15000
H637        H  0.92569755  0.52482635  0.89234728     0.20400
H638        H  0.60290183  0.71500344  0.88734112     0.16400
H639        H  0.08238365  0.71716028  0.94020901     0.18900
H640        H  0.93679900  0.52817955  0.83948722     0.12300
C641        C  0.46055808  0.62243157  0.60367539     0.16200
C642        C  0.44098372  0.60887001  0.63042196    -0.32900
C643        C  0.47946538  0.61504899  0.64959182     0.20600
C644        C  0.03469608  0.63373720  0.64228789     0.02800
C645        C  0.05375440  0.64593785  0.61559944    -0.22600
C646        C  0.01542407  0.63963653  0.59652527     0.11900
S647        S  0.42271423  0.62355385  0.57774847    -0.06300
C648        C  0.98198120  0.64864055  0.55711139    -0.09700
C649        C  0.02726555  0.65255513  0.56983371    -0.26300
S650        S  0.07484863  0.63737619  0.66794028    -0.03500
C651        C  0.01650979  0.61204056  0.68895547    -0.17000
C652        C  0.46868344  0.60259556  0.67653533    -0.15000
H653        H  0.39797393  0.59494197  0.63607086     0.20400
H654        H  0.09687442  0.66021707  0.60996057     0.16400
H655        H  0.06828982  0.66855799  0.56042440     0.18900
H656        H  0.42768801  0.58435080  0.68630962     0.12300
C657        C  0.36235484  0.90234772  0.86781120     0.16200
C658        C  0.33508409  0.90135761  0.89175594    -0.32900
C659        C  0.35921047  0.89930830  0.91564645     0.20600
C660        C  0.40905745  0.89987066  0.91586699     0.02800
C661        C  0.43659641  0.90150849  0.89196819    -0.22600
C662        C  0.41146870  0.90163970  0.86815306     0.11900
S663        S  0.33983029  0.90387103  0.83646169    -0.06300
C664        C  0.39673783  0.90231009  0.82389307    -0.09700
C665        C  0.43073148  0.90071703  0.84315976    -0.26300
S666        S  0.42750275  0.88963902  0.94670885    -0.03500
C667        C  0.36625000  0.88226199  0.95915636    -0.17000
C668        C  0.33492268  0.88995565  0.94055173    -0.15000
H669        H  0.29573380  0.90012185  0.89179152     0.20400
H670        H  0.47448838  0.89996379  0.89192241     0.16400
H671        H  0.46924914  0.90133753  0.83907512     0.18900
H672        H  0.29336922  0.88257868  0.94455643     0.12300
C673        C  0.37427225  0.84693817  0.64931646     0.16200
C674        C  0.36561941  0.81482640  0.62657777    -0.32900
C675        C  0.35806842  0.83577703  0.60242793     0.20600
C676        C  0.35932734  0.88643150  0.60086394     0.02800
C677        C  0.36782387  0.91846565  0.62355448    -0.22600
C678        C  0.37483754  0.89726165  0.64768989     0.11900
S679        S  0.38684514  0.83053254  0.68039517    -0.06300
C680        C  0.39244751  0.89203241  0.69118281    -0.09700
C681        C  0.38458554  0.92287221  0.67163143    -0.26300
S682        S  0.34773495  0.90359312  0.56992173    -0.03500
C683        C  0.34033571  0.84130980  0.55884427    -0.17000
C684        C  0.34739853  0.80978147  0.57845201    -0.15000
H685        H  0.36486869  0.77533281  0.62762978     0.20400
H686        H  0.36876235  0.95809683  0.62248350     0.16400
H687        H  0.38857289  0.96359196  0.67446482     0.18900
H688        H  0.34269624  0.76880125  0.57606026     0.12300
C689        C  0.81931609  0.21379850  0.48416867     0.03300
C690        C  0.77831714  0.15635097  0.98157285    -0.12800
C691        C  0.79277479  0.11439447  0.98138407     0.00800
C692        C  0.84969623  0.13150414  0.98050530    -0.11300
C693        C  0.89203072  0.18910243  0.48290916     0.03300
C694        C  0.87638014  0.22985077  0.48402707    -0.10700
H695        H  0.73464713  0.14331066  0.98461472     0.08900
H696        H  0.86053055  0.09940574  0.98290897     0.06500
H697        H  0.90777874  0.27294152  0.48884941     0.06300
C698        C  0.70569731  0.31513348  0.99228178     0.03300
C699        C  0.72586146  0.37382410  0.99151458    -0.12800
C700        C  0.68887259  0.39375331  0.99120012     0.00800
C701        C  0.63062399  0.35415021  0.99066347    -0.11300
C702        C  0.60933952  0.29565374  0.99164434     0.03300
C703        C  0.64743606  0.27654216  0.99208934    -0.10700
H704        H  0.77005924  0.40384164  0.99413781     0.08900
H705        H  0.60160098  0.36880628  0.99265265     0.06500
H706        H  0.63147158  0.23172572  0.99510612     0.06300
C707        C  0.82155953  0.32165944  0.03094215     0.86700
C708        C  0.81953637  0.26763875  0.02269634    -0.53500
C709        C  0.80307255  0.25185987  0.99727218     0.09600
C710        C  0.78612252  0.29064108  0.48283434     0.20600
C711        C  0.85871532  0.36589161  0.00885630    -0.54300
C712        C  0.83934973  0.34936186  0.48378061     0.09700
C713        C  0.76246425  0.30982555  0.02684268    -0.53800
C714        C  0.74399905  0.29608997  0.00148883     0.10300
H715        H  0.83645380  0.24709379  0.03435580     0.14800
H716        H  0.77091274  0.27686348  0.46239333     0.00600
H717        H  0.89626784  0.40629057  0.01267846     0.15600
H718        H  0.74063674  0.32032919  0.04175212     0.14900
C719        C  0.48799121  0.17304965  0.02910386     0.86700
C720        C  0.49410100  0.13850158  0.00662042    -0.53500
C721        C  0.50174218  0.16284816  0.48163646     0.09600
C722        C  0.50167846  0.21812310  0.48130743     0.20600
C723        C  0.53990458  0.23275732  0.02556676    -0.54300
C724        C  0.54947434  0.25571718  0.00036167     0.09700
C725        C  0.93945599  0.17949499  0.02090862    -0.53800
C726        C  0.94485483  0.20129605  0.99574545     0.10300
H727        H  0.49300481  0.09915542  0.01015825     0.14800
H728        H  0.50705741  0.23760756  0.46108554     0.00600
H729        H  0.57111924  0.25204806  0.04076423     0.15100
H730        H  0.90078210  0.16279552  0.03276749     0.14900
C731        C  0.67907111  0.00417021  0.02818907     0.86700
C732        C  0.69207331  0.45731488  0.02500156    -0.53500
C733        C  0.70829453  0.45264521  0.99968577     0.09600
C734        C  0.71534882  0.00045801  0.48032504     0.20600
C735        C  0.73253121  0.05841653  0.01938969    -0.54300
C736        C  0.75149970  0.05821787  0.99419188     0.09700
C737        C  0.63727003  0.99409962  0.00606698    -0.53800
C738        C  0.65657768  0.99164246  0.48108217     0.10300
H739        H  0.67975121  0.42442525  0.04036757     0.14800
H740        H  0.73175547  0.99959490  0.46002787     0.00600
H741        H  0.75143505  0.09616852  0.03135950     0.15100
H742        H  0.59635386  0.98870887  0.00961327     0.14900
O743        O  0.92849805  0.39248385  0.23398614    -0.85100
O744        O  0.53860523  0.45170561  0.22112813    -0.82200
C745        C  0.58599705  0.99521605  0.21688356     0.98300
O746        O  0.60931113  0.03069151  0.23508173    -0.82200
O747        O  0.55809949  0.08676251  0.22141939    -0.84900
C748        C  0.51661652  0.09047277  0.21587171     1.02900
O749        O  0.97547617  0.07316617  0.23248042    -0.77600
O750        O  0.91898453  0.46323433  0.22200636    -0.77800
C751        C  0.91333708  0.41620761  0.21729372     1.02800
O752        O  0.95776528  0.40990464  0.28970005    -0.85100
O753        O  0.56649165  0.45798808  0.27768398    -0.82200
C754        C  0.58062405  0.99467064  0.29557492     0.98400
O755        O  0.58361170  0.04057749  0.29045159    -0.82200
O756        O  0.54404271  0.10654711  0.27713206    -0.84800
C757        C  0.50452530  0.08407782  0.29465657     1.02800
O758        O  0.95918659  0.04012711  0.28955070    -0.77600
O759        O  0.89547318  0.43114741  0.27874222    -0.77800
C760        C  0.91594977  0.41327395  0.29577487     1.02800
Cr761      Cr  0.99818493  0.43209076  0.25552618     1.93700
Cr762      Cr  0.56965978  0.06215854  0.25593251     1.93200
Cr763      Cr  0.94122423  0.50190977  0.25567483     1.39100
O764        O  0.50278287  0.99859186  0.25564012    -1.22900
C765        C  0.61524594  0.00314938  0.09761892     0.16200
C766        C  0.58004387  0.99489446  0.11960222    -0.32900
C767        C  0.60331778  0.00504907  0.14480738     0.20600
C768        C  0.65958786  0.02481016  0.14822397     0.02800
C769        C  0.69505746  0.03362173  0.12610134    -0.22600
C770        C  0.67115827  0.02122789  0.10087554     0.11900
S771        S  0.59390910  0.98937468  0.06556015    -0.06300
C772        C  0.66085229  0.00697247  0.05633035    -0.09700
C773        C  0.69737497  0.02293387  0.07726620    -0.26300
S774        S  0.67859749  0.03277744  0.18092598    -0.03500
C775        C  0.60940185  0.00655335  0.18963802    -0.17000
C776        C  0.57447446  0.99448266  0.16845333    -0.15000
H777        H  0.53599071  0.97926543  0.11727334     0.20400
H778        H  0.73874965  0.54763141  0.12849069     0.16400
H779        H  0.74082309  0.03479526  0.07522158     0.18900
H780        H  0.52984202  0.97777896  0.17034310     0.12300
C781        C  0.59824918  0.95245152  0.36620882     0.16200
C782        C  0.60890391  0.93088686  0.38922304    -0.32900
C783        C  0.60804333  0.95484052  0.41366826     0.20600
C784        C  0.59459535  0.99639059  0.41545205     0.02800
C785        C  0.58338843  0.01745706  0.39253878    -0.22600
C786        C  0.58701631  0.99551158  0.36803497     0.11900
S787        S  0.60034289  0.93194874  0.33419335    -0.06300
C788        C  0.58856934  0.98394085  0.32337339    -0.09700
C789        C  0.58197853  0.01392213  0.34364306    -0.26300
S790        S  0.60094943  0.02371006  0.44647624    -0.03500
C791        C  0.62508923  0.98103636  0.45667686    -0.17000
C792        C  0.62528632  0.94566810  0.43740225    -0.15000
H793        H  0.61996147  0.89890986  0.38800208     0.20400
H794        H  0.57494557  0.55135803  0.39360508     0.16400
H795        H  0.57310737  0.54729770  0.34070647     0.18900
H796        H  0.64162001  0.91816103  0.44003815     0.12300
C797        C  0.48783130  0.09567120  0.41449343     0.16200
C798        C  0.46457534  0.06553075  0.39138666    -0.32900
C799        C  0.49193285  0.09105447  0.36688913     0.20600
C800        C  0.54155207  0.14320446  0.36520522     0.02800
C801        C  0.56501929  0.17349417  0.38840396    -0.22600
C802        C  0.53642803  0.14881844  0.41293622     0.11900
S803        S  0.45698877  0.07491607  0.44574204    -0.06300
C804        C  0.50866870  0.13958517  0.45662373    -0.09700
C805        C  0.54865822  0.17410089  0.43717027    -0.26300
S806        S  0.56872139  0.16512538  0.33320965    -0.03500
C807        C  0.51133750  0.10409408  0.32218952    -0.17000
C808        C  0.47418910  0.06903961  0.34243271    -0.15000
H809        H  0.42572584  0.02483517  0.39235648     0.20400
H810        H  0.10285899  0.21506965  0.38733064     0.16400
H811        H  0.58235109  0.21723385  0.44019879     0.18900
H812        H  0.43682387  0.02816546  0.33949667     0.12300
C813        C  0.96053020  0.12232757  0.10365974     0.16200
C814        C  0.94093355  0.10874212  0.13040218    -0.32900
C815        C  0.97941741  0.11497534  0.14958185     0.20600
C816        C  0.53467114  0.13373865  0.14229082     0.02800
C817        C  0.55374982  0.14595084  0.11560572    -0.22600
C818        C  0.51541728  0.13959451  0.09652186     0.11900
S819        S  0.92269011  0.12342221  0.07772570    -0.06300
C820        C  0.48198581  0.14857903  0.05710229    -0.09700
C821        C  0.52727714  0.15252911  0.06983281    -0.26300
S822        S  0.57483045  0.13745557  0.16795460    -0.03500
C823        C  0.51646278  0.11204060  0.18895673    -0.17000
C824        C  0.96862115  0.10251749  0.17652438    -0.15000
H825        H  0.89790676  0.09476317  0.13604112     0.20400
H826        H  0.59688774  0.16028687  0.10997710     0.16400
H827        H  0.56831769  0.16857745  0.06043310     0.18900
H828        H  0.92761085  0.08421547  0.18628937     0.12300
C829        C  0.86237323  0.40238269  0.36782084     0.16200
C830        C  0.83513484  0.40140728  0.39177359    -0.32900
C831        C  0.85926066  0.39931036  0.41565565     0.20600
C832        C  0.90907252  0.39980233  0.41586134     0.02800
C833        C  0.93657974  0.40142463  0.39195464    -0.22600
C834        C  0.91145529  0.40161263  0.36814775     0.11900
S835        S  0.83984606  0.40396270  0.33647862    -0.06300
C836        C  0.89671048  0.40234365  0.32389317    -0.09700
C837        C  0.93069080  0.40068979  0.34314915    -0.26300
S838        S  0.92751240  0.38951977  0.44669532    -0.03500
C839        C  0.86631010  0.38223512  0.45916048    -0.17000
C840        C  0.83500082  0.38998162  0.44056579    -0.15000
H841        H  0.79580942  0.40022365  0.39182132     0.20400
H842        H  0.97444538  0.39982990  0.39189618     0.16400
H843        H  0.96918284  0.40126522  0.33905384     0.18900
H844        H  0.79347219  0.38266081  0.44458073     0.12300
C845        C  0.87405732  0.34683581  0.14935012     0.16200
C846        C  0.86539147  0.31470457  0.12661630    -0.32900
C847        C  0.85793038  0.33568950  0.10245368     0.20600
C848        C  0.85926833  0.38638326  0.10087591     0.02800
C849        C  0.86775432  0.41842270  0.12356264    -0.22600
C850        C  0.87469745  0.39719696  0.14770793     0.11900
S851        S  0.88660704  0.33043774  0.18043631    -0.06300
C852        C  0.89231109  0.39199846  0.19120267    -0.09700
C853        C  0.88448163  0.42284179  0.17164144    -0.26300
S854        S  0.84780216  0.40360111  0.06991921    -0.03500
C855        C  0.84035051  0.34129084  0.05885157    -0.17000
C856        C  0.84729905  0.30970766  0.07847435    -0.15000
H857        H  0.86458867  0.27518487  0.12767909     0.20400
H858        H  0.86876104  0.45808775  0.12247916     0.16400
H859        H  0.88853836  0.46359665  0.17445948     0.18900
H860        H  0.84253407  0.26869836  0.07608857     0.12300
C861        C  0.81933446  0.21379094  0.98419247     0.03300
C862        C  0.77830067  0.15636067  0.48154439    -0.12800
C863        C  0.79275939  0.11440598  0.48135861     0.00800
C864        C  0.84968140  0.13151633  0.48048328    -0.11300
C865        C  0.89204687  0.18909007  0.98293012     0.03300
C866        C  0.87639819  0.22984031  0.98404922    -0.10700
H867        H  0.73462981  0.14331926  0.48458459     0.08900
H868        H  0.86051559  0.09941862  0.48288982     0.06500
H869        H  0.90779992  0.27293225  0.98886901     0.06300
C870        C  0.70567525  0.31512491  0.49227424     0.03300
C871        C  0.72585169  0.37381675  0.49150823    -0.12800
C872        C  0.68887399  0.39375786  0.49119763     0.00800
C873        C  0.63062180  0.35416469  0.49066048    -0.11300
C874        C  0.60932429  0.29566422  0.49163515     0.03300
C875        C  0.64741238  0.27654195  0.49207936    -0.10700
H876        H  0.77005130  0.40382629  0.49413136     0.08900
H877        H  0.60160700  0.36883028  0.49265274     0.06500
H878        H  0.63143998  0.23172330  0.49509337     0.06300
C879        C  0.82153005  0.32163658  0.53093321     0.86700
C880        C  0.81951053  0.26762177  0.52268043    -0.53500
C881        C  0.80304993  0.25185598  0.49725478     0.09600
C882        C  0.78614659  0.29064239  0.98284590     0.20600
C883        C  0.85868538  0.36587957  0.50885124    -0.54300
C884        C  0.83937667  0.34936230  0.98378697     0.09700
C885        C  0.76243277  0.30979971  0.52683488    -0.53800
C886        C  0.74397017  0.29607334  0.50147974     0.10300
H887        H  0.83642660  0.24707108  0.53433613     0.14800
H888        H  0.77093453  0.27685671  0.96240595     0.00600
H889        H  0.89623607  0.40627810  0.51267694     0.15600
H890        H  0.74060292  0.32029669  0.54174615     0.14900
C891        C  0.48796236  0.17306922  0.52909424     0.86700
C892        C  0.49407289  0.13851371  0.50661430    -0.53500
C893        C  0.50176411  0.16284231  0.98164481     0.09600
C894        C  0.50169557  0.21811433  0.98132090     0.20600
C895        C  0.53987831  0.23277519  0.52555563    -0.54300
C896        C  0.54945477  0.25573059  0.50034929     0.09700
C897        C  0.93943073  0.17951533  0.52089394    -0.53800
C898        C  0.94483534  0.20131027  0.49572863     0.10300
H899        H  0.49297212  0.09916633  0.51015617     0.14800
H900        H  0.50707028  0.23760350  0.96110043     0.00600
H901        H  0.57108996  0.25206776  0.54075436     0.15100
H902        H  0.90075508  0.16281921  0.53275130     0.14900
C903        C  0.67908892  0.00419396  0.52818263     0.86700
C904        C  0.69209527  0.45731457  0.52500526    -0.53500
C905        C  0.70831548  0.45265019  0.49968884     0.09600
C906        C  0.71536345  0.00044623  0.98033796     0.20600
C907        C  0.73253340  0.05844458  0.51937225    -0.54300
C908        C  0.75148569  0.05823700  0.49417181     0.09700
C909        C  0.63726446  0.99409841  0.50606772    -0.53800
C910        C  0.65659980  0.99164890  0.98108488     0.10300
H911        H  0.67976353  0.42441682  0.54036816     0.14800
H912        H  0.73178324  0.99958761  0.96004340     0.00600
H913        H  0.75144193  0.09620206  0.53133817     0.15100
H914        H  0.59634467  0.98869419  0.50962122     0.14900
O915        O  0.92843690  0.39235903  0.73398068    -0.85100
O916        O  0.53855166  0.45156424  0.72113316    -0.82200
C917        C  0.58608088  0.99534104  0.71688407     0.98300
O918        O  0.60938727  0.03082521  0.73507981    -0.82200
O919        O  0.55813802  0.08686034  0.72142122    -0.84900
C920        C  0.51664025  0.09054337  0.71587077     1.02900
O921        O  0.97550276  0.07323133  0.73248142    -0.77600
O922        O  0.91893498  0.46312036  0.72200695    -0.77800
C923        C  0.91327918  0.41609135  0.71729171     1.02800
O924        O  0.95767831  0.40975260  0.78969638    -0.85100
O925        O  0.56640597  0.45782179  0.77769238    -0.82200
C926        C  0.58071758  0.99479161  0.79557381     0.98400
O927        O  0.58368331  0.04068963  0.79045331    -0.82200
O928        O  0.54407036  0.10662701  0.77713729    -0.84800
C929        C  0.50454701  0.08414550  0.79465863     1.02800
O930        O  0.95921585  0.04018809  0.78955006    -0.77600
O931        O  0.89541012  0.43103194  0.77874215    -0.77800
C932        C  0.91587168  0.41313650  0.79577211     1.02800
Cr933      Cr  0.99811407  0.43194543  0.75552705     1.93700
Cr934      Cr  0.56971418  0.06226475  0.75593468     1.93200
Cr935      Cr  0.94118085  0.50179205  0.75567510     1.39100
O936        O  0.50284928  0.99868489  0.75564240    -1.22900
C937        C  0.61529285  0.00318713  0.59761942     0.16200
C938        C  0.58009578  0.99493308  0.61960435    -0.32900
C939        C  0.60338387  0.00512927  0.64480654     0.20600
C940        C  0.65966337  0.02493034  0.64821896     0.02800
C941        C  0.69512945  0.03374020  0.62609381    -0.22600
C942        C  0.67121574  0.02130373  0.60087048     0.11900
S943        S  0.59393653  0.98937022  0.56556527    -0.06300
C944        C  0.66088617  0.00700357  0.55632725    -0.09700
C945        C  0.69742589  0.02300402  0.57725861    -0.26300
S946        S  0.67868622  0.03294237  0.68092035    -0.03500
C947        C  0.60948346  0.00667705  0.68963705    -0.17000
C948        C  0.57454559  0.99456631  0.66845378    -0.15000
H949        H  0.53603488  0.97927366  0.61727917     0.20400
H950        H  0.73875773  0.54758763  0.62850894     0.16400
H951        H  0.74088123  0.03489271  0.57520901     0.18900
H952        H  0.52990774  0.97783373  0.67034545     0.12300
C953        C  0.59833854  0.95254257  0.86620174     0.16200
C954        C  0.60897683  0.93095871  0.88921442    -0.32900
C955        C  0.60810984  0.95490084  0.91366225     0.20600
C956        C  0.59467243  0.99645833  0.91544929     0.02800
C957        C  0.58347891  0.01754103  0.89253801    -0.22600
C958        C  0.58711262  0.99560679  0.86803229     0.11900
S959        S  0.60044015  0.93205704  0.83418360    -0.06300
C960        C  0.58867575  0.98406006  0.82336973    -0.09700
C961        C  0.58208452  0.01403342  0.84364273    -0.26300
S962        S  0.60101856  0.02376410  0.94647575    -0.03500
C963        C  0.62513568  0.98107020  0.95667421    -0.17000
C964        C  0.62533485  0.94570813  0.93739691    -0.15000
H965        H  0.62002623  0.89897612  0.88799077     0.20400
H966        H  0.57484335  0.55123002  0.89359894     0.16400
H967        H  0.57301404  0.54714469  0.84070533     0.18900
H968        H  0.64165516  0.91818956  0.94003261     0.12300
C969        C  0.48783998  0.09570192  0.91449431     0.16200
C970        C  0.46458135  0.06557161  0.89138577    -0.32900
C971        C  0.49193609  0.09110611  0.86688950     0.20600
C972        C  0.54155171  0.14326005  0.86520807     0.02800
C973        C  0.56502151  0.17353958  0.88840860    -0.22600
C974        C  0.53643686  0.14884945  0.91294012     0.11900
S975        S  0.45700378  0.07492999  0.94574304    -0.06300
C976        C  0.50868983  0.13958985  0.95662961    -0.09700
C977        C  0.54867584  0.17411612  0.93717744    -0.26300
S978        S  0.56872060  0.16519341  0.83321375    -0.03500
C979        C  0.51134536  0.10415810  0.82219126    -0.17000
C980        C  0.47419703  0.06909545  0.84243233    -0.15000
H981        H  0.42573419  0.02487239  0.89235376     0.20400
H982        H  0.10286093  0.21511553  0.88733772     0.16400
H983        H  0.58237016  0.21724614  0.94020966     0.18900
H984        H  0.43683737  0.02821587  0.83949442     0.12300
C985        C  0.96050623  0.12236512  0.60365587     0.16200
C986        C  0.94091739  0.10878551  0.63040045    -0.32900
C987        C  0.97940462  0.11501021  0.64957759     0.20600
C988        C  0.53465298  0.13375985  0.64228151     0.02800
C989        C  0.55372251  0.14596546  0.61559510    -0.22600
C990        C  0.51538806  0.13961765  0.59651424     0.11900
S991        S  0.92266576  0.12346836  0.57772268    -0.06300
C992        C  0.48195465  0.14860630  0.55709536    -0.09700
C993        C  0.52724288  0.15254676  0.56982446    -0.26300
S994        S  0.57482085  0.13747663  0.66794138    -0.03500
C995        C  0.51646679  0.11208382  0.68895075    -0.17000
C996        C  0.96862036  0.10256262  0.67652227    -0.15000
H997        H  0.89789535  0.09481846  0.63604278     0.20400
H998        H  0.59685676  0.16029166  0.60996311     0.16400
H999        H  0.56827988  0.16858349  0.56042249     0.18900
H1000       H  0.92761634  0.08427568  0.68629221     0.12300
C1001       C  0.86233074  0.40228400  0.86782146     0.16200
C1002       C  0.83512374  0.40135323  0.89177709    -0.32900
C1003       C  0.85926041  0.39926132  0.91565662     0.20600
C1004       C  0.90905167  0.39971263  0.91585659     0.02800
C1005       C  0.93652391  0.40128343  0.89194709    -0.22600
C1006       C  0.91138965  0.40146996  0.86814337     0.11900
S1007       S  0.83979756  0.40387164  0.83648144    -0.06300
C1008       C  0.89662986  0.40219997  0.82389035    -0.09700
C1009       C  0.93060021  0.40051682  0.84314333    -0.26300
S1010       S  0.92750731  0.38944783  0.94668983    -0.03500
C1011       C  0.86633581  0.38222129  0.95916341    -0.17000
C1012       C  0.83502780  0.38997657  0.94057112    -0.15000
H1013       H  0.79581608  0.40020471  0.89182934     0.20400
H1014       H  0.97437089  0.39965534  0.89188491     0.16400
H1015       H  0.96907491  0.40106106  0.83904479     0.18900
H1016       H  0.79351310  0.38268724  0.94459196     0.12300
C1017       C  0.87402679  0.34676103  0.64934059     0.16200
C1018       C  0.86538360  0.31465160  0.62660096    -0.32900
C1019       C  0.85791351  0.33564301  0.60244267     0.20600
C1020       C  0.85922770  0.38632532  0.60087402     0.02800
C1021       C  0.86768990  0.41834225  0.62356675    -0.22600
C1022       C  0.87463599  0.39710694  0.64770822     0.11900
S1023       S  0.88658478  0.33035396  0.68042262    -0.06300
C1024       C  0.89224902  0.39188932  0.69120067    -0.09700
C1025       C  0.88439885  0.42273038  0.67164653    -0.26300
S1026       S  0.84775574  0.40355372  0.56992104    -0.03500
C1027       C  0.84032182  0.34125727  0.55884380    -0.17000
C1028       C  0.84728953  0.30967521  0.57845989    -0.15000
H1029       H  0.86460211  0.27514275  0.62765640     0.20400
H1030       H  0.86867470  0.45799676  0.62249074     0.16400
H1031       H  0.88843190  0.46347288  0.67447235     0.18900
H1032       H  0.84254102  0.26867509  0.57606779     0.12300
C1033       C  0.81932651  0.71380874  0.48418407     0.03300
C1034       C  0.77830538  0.65636331  0.98154389    -0.12800
C1035       C  0.79275458  0.61439950  0.98135093     0.00800
C1036       C  0.84967112  0.63149666  0.98047167    -0.11300
C1037       C  0.89204762  0.68911526  0.48291624     0.03300
C1038       C  0.87639212  0.72986119  0.48404468    -0.10700
H1039       H  0.73463635  0.64332778  0.98458314     0.08900
H1040       H  0.86049629  0.59939023  0.98286883     0.06500
H1041       H  0.90778921  0.77294961  0.48887130     0.06300
C1042       C  0.70564535  0.81510940  0.99227070     0.03300
C1043       C  0.72581113  0.87380209  0.99152339    -0.12800
C1044       C  0.68882374  0.89373434  0.99121328     0.00800
C1045       C  0.63057657  0.85413305  0.99066419    -0.11300
C1046       C  0.60929306  0.79563516  0.99162378     0.03300
C1047       C  0.64738733  0.77652191  0.99206057    -0.10700
H1048       H  0.77000593  0.90381404  0.99415663     0.08900
H1049       H  0.60155253  0.86878694  0.99265808     0.06500
H1050       H  0.63142016  0.73170127  0.99506220     0.06300
C1051       C  0.82150164  0.82165073  0.03092730     0.86700
C1052       C  0.81952756  0.76765705  0.02267467    -0.53500
C1053       C  0.80306835  0.75187646  0.99725057     0.09600
C1054       C  0.78612788  0.79065854  0.48283822     0.20600
C1055       C  0.85863321  0.86590345  0.00884490    -0.54300
C1056       C  0.83935371  0.84938132  0.48378319     0.09700
C1057       C  0.76238789  0.80976700  0.02683089    -0.53800
C1058       C  0.74393157  0.79604282  0.00147463     0.10300
H1059       H  0.83645791  0.74712323  0.03433232     0.14800
H1060       H  0.77092025  0.77687805  0.46239719     0.00600
H1061       H  0.89616547  0.90631779  0.01267014     0.15600
H1062       H  0.74054549  0.82024801  0.04174266     0.14900
C1063       C  0.48796791  0.67302792  0.02909142     0.86700
C1064       C  0.49408773  0.63847298  0.00661521    -0.53500
C1065       C  0.50173983  0.66281295  0.48165058     0.09600
C1066       C  0.50168113  0.71809239  0.48130961     0.20600
C1067       C  0.53987001  0.73274165  0.02554773    -0.54300
C1068       C  0.54943235  0.75568724  0.00033990     0.09700
C1069       C  0.93942213  0.67945187  0.02089040    -0.53800
C1070       C  0.94482162  0.70124648  0.99572495     0.10300
H1071       H  0.49300257  0.59913436  0.01016050     0.14800
H1072       H  0.50705826  0.73755890  0.46108334     0.00600
H1073       H  0.57108380  0.75205072  0.04074453     0.15100
H1074       H  0.90075000  0.66275780  0.03275042     0.14900
C1075       C  0.67909617  0.50416445  0.02817201     0.86700
C1076       C  0.69200488  0.95728912  0.02501943    -0.53500
C1077       C  0.70824251  0.95262247  0.99970664     0.09600
C1078       C  0.71540629  0.50046388  0.48032260     0.20600
C1079       C  0.73252827  0.55842696  0.01936277    -0.54300
C1080       C  0.75148294  0.55822794  0.99416167     0.09700
C1081       C  0.63726805  0.49405263  0.00605715    -0.53800
C1082       C  0.65663225  0.49163724  0.48107584     0.10300
H1083       H  0.67965187  0.92438798  0.04038282     0.14800
H1084       H  0.73182620  0.49961507  0.46002657     0.00600
H1085       H  0.75142741  0.59618179  0.03133038     0.15100
H1086       H  0.59634056  0.48863055  0.00961012     0.14900
O1087       O  0.92848368  0.89239302  0.23397195    -0.85100
O1088       O  0.53859270  0.95162576  0.22113111    -0.82200
C1089       C  0.58601087  0.49529036  0.21687186     0.98300
O1090       O  0.60934021  0.53077936  0.23506473    -0.82200
O1091       O  0.55815521  0.58687987  0.22141859    -0.84900
C1092       C  0.51667432  0.59059271  0.21586991     1.02900
O1093       O  0.97552899  0.57327950  0.23247555    -0.77600
O1094       O  0.91893848  0.96313361  0.22201041    -0.77800
C1095       C  0.91331949  0.91612524  0.21728501     1.02800
O1096       O  0.95772533  0.90978156  0.28969673    -0.85100
O1097       O  0.56645334  0.95789346  0.27769154    -0.82200
C1098       C  0.58066404  0.49475888  0.29557014     0.98400
O1099       O  0.58366399  0.54067122  0.29044826    -0.82200
O1100       O  0.54411123  0.60665174  0.27713842    -0.84800
C1101       C  0.50458356  0.58418701  0.29465839     1.02800
O1102       O  0.95923602  0.54025193  0.28954490    -0.77600
O1103       O  0.89543356  0.93102654  0.27874351    -0.77800
C1104       C  0.91591478  0.91315604  0.29577507     1.02800
Cr1105     Cr  0.99815596  0.93199093  0.25552454     1.93700
Cr1106     Cr  0.56971025  0.56225831  0.25592903     1.93200
Cr1107     Cr  0.94117622  0.00179452  0.25567969     1.39100
O1108       O  0.50282598  0.49869867  0.25563784    -1.22900
C1109       C  0.61525121  0.50308901  0.09760404     0.16200
C1110       C  0.58004023  0.49481795  0.11958591    -0.32900
C1111       C  0.60331816  0.50501564  0.14479093     0.20600
C1112       C  0.65959809  0.52482642  0.14820818     0.02800
C1113       C  0.69507599  0.53364841  0.12608652    -0.22600
C1114       C  0.67117585  0.52121956  0.10086052     0.11900
S1115       S  0.59391462  0.48928887  0.06554680    -0.06300
C1116       C  0.66087726  0.50695515  0.05631499    -0.09700
C1117       C  0.69740563  0.52294969  0.07725027    -0.26300
S1118       S  0.67861387  0.53285533  0.18091059    -0.03500
C1119       C  0.60941007  0.50659231  0.18962350    -0.17000
C1120       C  0.57447400  0.49446112  0.16843673    -0.15000
H1121       H  0.53598033  0.47915410  0.11725589     0.20400
H1122       H  0.73872076  0.04756084  0.12850470     0.16400
H1123       H  0.74086609  0.53485433  0.07520452     0.18900
H1124       H  0.52983639  0.47772981  0.17032500     0.12300
C1125       C  0.59831396  0.45252029  0.36619491     0.16200
C1126       C  0.60900847  0.43096697  0.38920040    -0.32900
C1127       C  0.60812630  0.45488614  0.41365239     0.20600
C1128       C  0.59461731  0.49638946  0.41545179     0.02800
C1129       C  0.58337184  0.51744697  0.39254627    -0.22600
C1130       C  0.58702363  0.49553855  0.36803446     0.11900
S1131       S  0.60043342  0.43205701  0.33417449    -0.06300
C1132       C  0.58859706  0.48401267  0.32336836    -0.09700
C1133       C  0.58196330  0.51395215  0.34364630    -0.26300
S1134       S  0.60094280  0.52366646  0.44648505    -0.03500
C1135       C  0.62515439  0.48104237  0.45666692    -0.17000
C1136       C  0.62539618  0.44571934  0.43737966    -0.15000
H1137       H  0.62011265  0.39902567  0.38796762     0.20400
H1138       H  0.57500868  0.05140267  0.39358577     0.16400
H1139       H  0.57316136  0.04729621  0.34069520     0.18900
H1140       H  0.64176974  0.41824407  0.44000364     0.12300
C1141       C  0.48785187  0.59566099  0.41450348     0.16200
C1142       C  0.46458169  0.56556613  0.39138702    -0.32900
C1143       C  0.49196282  0.59110556  0.36689524     0.20600
C1144       C  0.54162314  0.64321973  0.36522613     0.02800
C1145       C  0.56510456  0.67346438  0.38843462    -0.22600
C1146       C  0.53648445  0.64878075  0.41296102     0.11900
S1147       S  0.45697780  0.57489886  0.44574624    -0.06300
C1148       C  0.50868370  0.63953814  0.45664430    -0.09700
C1149       C  0.54871140  0.67404141  0.43720118    -0.26300
S1150       S  0.56882055  0.66515705  0.33323506    -0.03500
C1151       C  0.51139226  0.60418573  0.32219626    -0.17000
C1152       C  0.47420792  0.56913883  0.34243130    -0.15000
H1153       H  0.42570133  0.52489685  0.39234548     0.20400
H1154       H  0.10297429  0.71501696  0.38737281     0.16400
H1155       H  0.58242352  0.71715980  0.44023893     0.18900
H1156       H  0.43680974  0.52829465  0.33948432     0.12300
C1157       C  0.96054919  0.62237313  0.10365719     0.16200
C1158       C  0.94096618  0.60881271  0.13040226    -0.32900
C1159       C  0.97946235  0.61507432  0.14958101     0.20600
C1160       C  0.53471535  0.63384030  0.14228721     0.02800
C1161       C  0.55378234  0.64603307  0.11559993    -0.22600
C1162       C  0.51543717  0.63964840  0.09651680     0.11900
S1163       S  0.92268890  0.62342447  0.07772157    -0.06300
C1164       C  0.48197836  0.64858003  0.05709422    -0.09700
C1165       C  0.52728245  0.65255802  0.06982514    -0.26300
S1166       S  0.57488475  0.63757448  0.16795045    -0.03500
C1167       C  0.51652182  0.61216422  0.18895564    -0.17000
C1168       C  0.96867606  0.60263320  0.17652486    -0.15000
H1169       H  0.89793932  0.59482754  0.13604347     0.20400
H1170       H  0.59692018  0.66037193  0.10996868     0.16400
H1171       H  0.56832148  0.66860971  0.06042290     0.18900
H1172       H  0.92766742  0.58432943  0.18629169     0.12300
C1173       C  0.86238162  0.90234387  0.36782213     0.16200
C1174       C  0.83515851  0.90140687  0.39177302    -0.32900
C1175       C  0.85928385  0.89932079  0.41565684     0.20600
C1176       C  0.90908565  0.89979315  0.41586547     0.02800
C1177       C  0.93658151  0.90138238  0.39195994    -0.22600
C1178       C  0.91145316  0.90155415  0.36815119     0.11900
S1179       S  0.83984287  0.90389589  0.33647990    -0.06300
C1180       C  0.89668873  0.90224273  0.32389565    -0.09700
C1181       C  0.93067269  0.90059618  0.34315268    -0.26300
S1182       S  0.92751877  0.88951734  0.44670238    -0.03500
C1183       C  0.86632280  0.88225309  0.45916371    -0.17000
C1184       C  0.83502472  0.89001000  0.44056660    -0.15000
H1185       H  0.79584097  0.90023866  0.39181832     0.20400
H1186       H  0.97443720  0.89977085  0.39190452     0.16400
H1187       H  0.96915604  0.90115627  0.33905763     0.18900
H1188       H  0.79350055  0.88270262  0.44457972     0.12300
C1189       C  0.87411619  0.84685039  0.14931952     0.16200
C1190       C  0.86546421  0.81474200  0.12657984    -0.32900
C1191       C  0.85795404  0.83571577  0.10242719     0.20600
C1192       C  0.85923814  0.88638296  0.10086213     0.02800
C1193       C  0.86772669  0.91841084  0.12355462    -0.22600
C1194       C  0.87471217  0.89718983  0.14769218     0.11900
S1195       S  0.88667562  0.83043174  0.18039827    -0.06300
C1196       C  0.89232381  0.89195274  0.19118491    -0.09700
C1197       C  0.88447657  0.92280437  0.17163368    -0.26300
S1198       S  0.84769497  0.90357162  0.06991473    -0.03500
C1199       C  0.84029306  0.84128758  0.05883625    -0.17000
C1200       C  0.84731032  0.80973547  0.07844819    -0.15000
H1201       H  0.86469519  0.77523918  0.12763211     0.20400
H1202       H  0.86869087  0.95805494  0.12248252     0.16400
H1203       H  0.88849536  0.96353870  0.17446596     0.18900
H1204       H  0.84258773  0.76874603  0.07605655     0.12300
C1205       C  0.81932801  0.71380014  0.98417236     0.03300
C1206       C  0.77831558  0.65636702  0.48156006    -0.12800
C1207       C  0.79278322  0.61441729  0.48136522     0.00800
C1208       C  0.84970474  0.63153281  0.48048132    -0.11300
C1209       C  0.89202551  0.68907363  0.98290963     0.03300
C1210       C  0.87638815  0.72983336  0.98403789    -0.10700
H1211       H  0.73464343  0.64331807  0.48460291     0.08900
H1212       H  0.86054437  0.59943700  0.48287808     0.06500
H1213       H  0.90779397  0.77291739  0.98886671     0.06300
C1214       C  0.70567861  0.81514909  0.49227378     0.03300
C1215       C  0.72583743  0.87383905  0.49151818    -0.12800
C1216       C  0.68884422  0.89376329  0.49120580     0.00800
C1217       C  0.63059793  0.85415688  0.49066019    -0.11300
C1218       C  0.60932038  0.79566065  0.49162761     0.03300
C1219       C  0.64742052  0.77655471  0.49206940    -0.10700
H1220       H  0.77003253  0.90385695  0.49414800     0.08900
H1221       H  0.60157044  0.86880689  0.49265175     0.06500
H1222       H  0.63145885  0.73173689  0.49507799     0.06300
C1223       C  0.82153132  0.82166778  0.53093686     0.86700
C1224       C  0.81951188  0.76764862  0.52268870    -0.53500
C1225       C  0.80305527  0.75187411  0.49726336     0.09600
C1226       C  0.78610113  0.79063411  0.98282930     0.20600
C1227       C  0.85868513  0.86590463  0.50885336    -0.54300
C1228       C  0.83930189  0.84937583  0.98377479     0.09700
C1229       C  0.76243383  0.80982734  0.52683684    -0.53800
C1230       C  0.74397512  0.79609938  0.50148114     0.10300
H1231       H  0.83641945  0.74709520  0.53434791     0.14800
H1232       H  0.77089508  0.77684838  0.96238860     0.00600
H1233       H  0.89623427  0.90630533  0.51267804     0.15600
H1234       H  0.74060178  0.82032476  0.54174661     0.14900
C1235       C  0.48797664  0.67307738  0.52910526     0.86700
C1236       C  0.49407396  0.63849880  0.50663301    -0.53500
C1237       C  0.50174401  0.66279505  0.98163580     0.09600
C1238       C  0.50166147  0.71806172  0.98130118     0.20600
C1239       C  0.53989581  0.73277658  0.52555583    -0.54300
C1240       C  0.54946078  0.75571302  0.50034591     0.09700
C1241       C  0.93944667  0.67952554  0.52090213    -0.53800
C1242       C  0.94484848  0.70130653  0.49573336     0.10300
H1243       H  0.49297612  0.59915542  0.51018365     0.14800
H1244       H  0.50703166  0.73753394  0.96107698     0.00600
H1245       H  0.57111274  0.75208046  0.54075170     0.15100
H1246       H  0.90077632  0.66284623  0.53276220     0.14900
C1247       C  0.67912799  0.50416923  0.52817993     0.86700
C1248       C  0.69203871  0.95732443  0.52501123    -0.53500
C1249       C  0.70825848  0.95265125  0.49969539     0.09600
C1250       C  0.71536611  0.50044432  0.98031482     0.20600
C1251       C  0.73256719  0.55843035  0.51937656    -0.54300
C1252       C  0.75152582  0.55823960  0.49417518     0.09700
C1253       C  0.63730775  0.49407525  0.50606181    -0.53800
C1254       C  0.65658599  0.49160543  0.98107211     0.10300
H1255       H  0.67970723  0.92443254  0.54037690     0.14800
H1256       H  0.73177741  0.49958851  0.96001767     0.00600
H1257       H  0.75146363  0.59618141  0.53134668     0.15100
H1258       H  0.59638363  0.48866178  0.50961353     0.14900
O1259       O  0.92857498  0.89247785  0.73397880    -0.85100
O1260       O  0.53868501  0.95173869  0.72113485    -0.82200
C1261       C  0.58596641  0.49514097  0.71688344     0.98300
O1262       O  0.60929140  0.53062037  0.73507988    -0.82200
O1263       O  0.55812526  0.58673728  0.72142119    -0.84900
C1264       C  0.51665301  0.59046441  0.71587047     1.02900
O1265       O  0.97550855  0.57316465  0.73247580    -0.77600
O1266       O  0.91901358  0.96320293  0.72200852    -0.77800
C1267       C  0.91341454  0.91620238  0.71728580     1.02800
O1268       O  0.95781621  0.90988658  0.78970411    -0.85100
O1269       O  0.56655231  0.95801736  0.77769022    -0.82200
C1270       C  0.58057585  0.49459028  0.79557932     0.98400
O1271       O  0.58359490  0.54051212  0.79045603    -0.82200
O1272       O  0.54407395  0.60652188  0.77713635    -0.84800
C1273       C  0.50454346  0.58406907  0.79465482     1.02800
O1274       O  0.95919597  0.54013214  0.78954446    -0.77600
O1275       O  0.89549634  0.93108305  0.77873811    -0.77800
C1276       C  0.91598534  0.91323291  0.79577528     1.02800
Cr1277     Cr  0.99824705  0.93209617  0.75552919     1.93700
Cr1278     Cr  0.56966345  0.56211140  0.75593486     1.93200
Cr1279     Cr  0.94122605  0.00185940  0.75567854     1.39100
O1280       O  0.50277165  0.49856106  0.75564044    -1.22900
C1281       C  0.61526122  0.50302551  0.59761637     0.16200
C1282       C  0.58003766  0.49471779  0.61959792    -0.32900
C1283       C  0.60330662  0.50490120  0.64480436     0.20600
C1284       C  0.65959000  0.52473406  0.64822465     0.02800
C1285       C  0.69508082  0.53358808  0.62610319    -0.22600
C1286       C  0.67118930  0.52117269  0.60087446     0.11900
S1287       S  0.59393527  0.48925164  0.56555677    -0.06300
C1288       C  0.66090575  0.50694713  0.55632461    -0.09700
C1289       C  0.69743010  0.52293338  0.57726216    -0.26300
S1290       S  0.67859334  0.53275398  0.68092940    -0.03500
C1291       C  0.60937912  0.50645155  0.68963741    -0.17000
C1292       C  0.57444994  0.49431756  0.66844795    -0.15000
H1293       H  0.53597543  0.47903946  0.61726602     0.20400
H1294       H  0.73880127  0.04771040  0.62849384     0.16400
H1295       H  0.74089451  0.53485071  0.57521671     0.18900
H1296       H  0.52980921  0.47756999  0.67033246     0.12300
C1297       C  0.59816186  0.45233887  0.86621278     0.16200
C1298       C  0.60885450  0.43079819  0.88922324    -0.32900
C1299       C  0.60799734  0.45475096  0.91366866     0.20600
C1300       C  0.59450225  0.49626613  0.91545811     0.02800
C1301       C  0.58325165  0.51730505  0.89254864    -0.22600
C1302       C  0.58688997  0.49537140  0.86804286     0.11900
S1303       S  0.60028257  0.43185871  0.83419596    -0.06300
C1304       C  0.58847948  0.48383210  0.82337995    -0.09700
C1305       C  0.58184802  0.51378331  0.84365179    -0.26300
S1306       S  0.60086993  0.52359432  0.94648096    -0.03500
C1307       C  0.62508603  0.48097934  0.95667007    -0.17000
C1308       C  0.62529528  0.44561955  0.93739499    -0.15000
H1309       H  0.61995073  0.39884994  0.88799799     0.20400
H1310       H  0.57510444  0.05148906  0.89358820     0.16400
H1311       H  0.57326826  0.04740744  0.84069924     0.18900
H1312       H  0.64166922  0.41814543  0.94002456     0.12300
C1313       C  0.48782980  0.59562955  0.91449193     0.16200
C1314       C  0.46456183  0.56550992  0.89138153    -0.32900
C1315       C  0.49192798  0.59103867  0.86688616     0.20600
C1316       C  0.54156806  0.64317057  0.86520778     0.02800
C1317       C  0.56504608  0.67344055  0.88841008    -0.22600
C1318       C  0.53644495  0.64876273  0.91294024     0.11900
S1319       S  0.45697901  0.57487205  0.94573869    -0.06300
C1320       C  0.50867613  0.63952602  0.95662643    -0.09700
C1321       C  0.54868035  0.67403514  0.93717689    -0.26300
S1322       S  0.56875209  0.66509247  0.83321442    -0.03500
C1323       C  0.51134784  0.60408678  0.82218761    -0.17000
C1324       C  0.47417910  0.56904170  0.84242720    -0.15000
H1325       H  0.42569769  0.52482632  0.89234728     0.20400
H1326       H  0.10290221  0.71500353  0.88734113     0.16400
H1327       H  0.58238375  0.71716064  0.94020904     0.18900
H1328       H  0.43679915  0.52817950  0.83948721     0.12300
C1329       C  0.96055807  0.62243154  0.60367539     0.16200
C1330       C  0.94098369  0.60887004  0.63042196    -0.32900
C1331       C  0.97946535  0.61504899  0.64959182     0.20600
C1332       C  0.53469616  0.63373736  0.64228788     0.02800
C1333       C  0.55375446  0.64593803  0.61559944    -0.22600
C1334       C  0.51542411  0.63963663  0.59652527     0.11900
S1335       S  0.92271420  0.62355375  0.57774845    -0.06300
C1336       C  0.48198122  0.64864065  0.55711140    -0.09700
C1337       C  0.52726556  0.65255525  0.56983372    -0.26300
S1338       S  0.57484878  0.63737652  0.66794029    -0.03500
C1339       C  0.51650989  0.61204066  0.68895546    -0.17000
C1340       C  0.96868337  0.60259559  0.67653534    -0.15000
H1341       H  0.89797403  0.59494208  0.63607085     0.20400
H1342       H  0.59687455  0.66021739  0.60996056     0.16400
H1343       H  0.56828992  0.66855815  0.56042438     0.18900
H1344       H  0.92768806  0.58435099  0.68630961     0.12300
C1345       C  0.86235496  0.90234782  0.86781124     0.16200
C1346       C  0.83508430  0.90135780  0.89175599    -0.32900
C1347       C  0.85921061  0.89930840  0.91564649     0.20600
C1348       C  0.90905751  0.89987066  0.91586703     0.02800
C1349       C  0.93659651  0.90150844  0.89196823    -0.22600
C1350       C  0.91146876  0.90163971  0.86815309     0.11900
S1351       S  0.83983037  0.90387108  0.83646175    -0.06300
C1352       C  0.89673786  0.90231009  0.82389310    -0.09700
C1353       C  0.93073153  0.90071700  0.84315979    -0.26300
S1354       S  0.92750279  0.88963901  0.94670890    -0.03500
C1355       C  0.86625004  0.88226202  0.95915640    -0.17000
C1356       C  0.83492278  0.88995574  0.94055176    -0.15000
H1357       H  0.79573387  0.90012215  0.89179158     0.20400
H1358       H  0.97448803  0.89996370  0.89192245     0.16400
H1359       H  0.96924912  0.90133746  0.83907513     0.18900
H1360       H  0.79336943  0.88257882  0.94455644     0.12300
C1361       C  0.87427214  0.84693817  0.64931646     0.16200
C1362       C  0.86561930  0.81482638  0.62657778    -0.32900
C1363       C  0.85806835  0.83577705  0.60242794     0.20600
C1364       C  0.85932725  0.88643150  0.60086394     0.02800
C1365       C  0.86782376  0.91846565  0.62355448    -0.22600
C1366       C  0.87483743  0.89726164  0.64768990     0.11900
S1367       S  0.88684503  0.83053254  0.68039517    -0.06300
C1368       C  0.89244741  0.89203241  0.69118282    -0.09700
C1369       C  0.88458544  0.92287221  0.67163144    -0.26300
S1370       S  0.84773491  0.90359314  0.56992173    -0.03500
C1371       C  0.84033568  0.84130985  0.55884427    -0.17000
C1372       C  0.84739850  0.80978148  0.57845201    -0.15000
H1373       H  0.86486859  0.77533285  0.62762979     0.20400
H1374       H  0.86876224  0.95809682  0.62248350     0.16400
H1375       H  0.88857280  0.96359196  0.67446482     0.18900
H1376       H  0.84269628  0.76880157  0.57606028     0.12300
loop_ 
_geom_bond_atom_site_label_1 
_geom_bond_atom_site_label_2 
_geom_bond_distance 
_geom_bond_site_symmetry_2 
_ccdc_geom_bond_type 
C1            C6   1.417       .  A
C1          C174   1.404       .  A
C1          C193   1.500       .  S
C2            C3   1.415       .  A
C2          C173   1.404       .  A
C2            H7   1.085       .  S
C3            C4   1.405       .  A
C3           C48   1.493       .  S
C4          C177   1.414       .  A
C4            H8   1.085       .  S
C5            C6   1.408       .  A
C5          C176   1.414       .  A
C5          C210   1.497       .  S
C6            H9   1.084       .  S
C10          C11   1.414       .  A
C10          C15   1.408       .  A
C10          C26   1.499   1_556  S
C11          C12   1.405       .  A
C11          H16   1.084       .  S
C12          C13   1.413       .  A
C12          C45   1.495       .  S
C13          C14   1.403       .  A
C13          H17   1.084       .  S
C14          C15   1.417       .  A
C14          C36   1.497   1_556  S
C15          H18   1.084       .  S
C19          C20   1.529       .  S
C19          C25   1.529       .  S
C19          C23   1.545       .  S
C19         C167   1.509       .  S
C20          H27   1.084       .  S
C20          C21   1.361   1_554  D
C21         C173   1.500       .  S
C21         C194   1.558       .  S
C22          C24   1.530       .  S
C22         C193   1.558       .  S
C22         C198   1.556       .  S
C22          H28   1.111       .  S
C23          H29   1.086       .  S
C23         C196   1.365   1_554  D
C24         C151   1.459       .  S
C24         C195   1.365       .  D
C25          H30   1.088       .  S
C25          C26   1.364       .  D
C26         C194   1.556   1_554  S
C31          C32   1.548       .  S
C31          C35   1.533   1_655  S
C31         C725   1.524       .  S
C31         C132   1.516       .  S
C32          H39   1.086       .  S
C32         C205   1.371   1_654  D
C33         C116   1.469       .  S
C33          C34   1.531       .  S
C33         C204   1.371   1_455  D
C34         C898   1.560   1_455  S
C34         C208   1.553       .  S
C34          H40   1.111       .  S
C35          H41   1.087       .  S
C35          C36   1.362       .  D
C36         C206   1.553   1_554  S
C37         C719   1.524       .  S
C37          H42   1.086       .  S
C37          C38   1.361   1_554  D
C38         C177   1.497       .  S
C38         C894   1.560       .  S
C43          C49   1.550   1_545  S
C43          C47   1.515       .  S
C43         C388   1.527   1_545  S
C43          C84   1.503       .  S
C44         C387   1.527       .  S
C44          H51   1.088       .  S
C44          C45   1.366   1_554  D
C45         C562   1.555       .  S
C46          C50   1.531   1_545  S
C46         C561   1.555   1_545  S
C46         C220   1.559       .  S
C46          H52   1.111   1_545  S
C47          H53   1.088       .  S
C47          C48   1.358   1_554  D
C48         C218   1.559       .  S
C49          H54   1.085       .  S
C49         C222   1.367   1_554  D
C50         C103   1.465       .  S
C50         C221   1.367       .  D
O55         Cr73   2.016       .  S
O55          C63   1.267       .  A
O56        Cr761   1.945   1_455  S
O56         C401   1.254       .  A
C57          O58   1.265   1_565  A
C57         O400   1.253       .  A
C57          C87   1.456   1_565  S
O58         Cr74   2.014       .  S
O59         Cr74   1.945       .  S
O59          C60   1.255       .  A
C60         O749   1.271   1_455  A
C60         C135   1.468       .  S
O61        Cr419   2.022       .  S
O61         C748   1.271       .  A
O62         Cr75   1.942       .  S
O62          C63   1.253       .  A
C63         C164   1.465       .  S
O64         Cr73   1.934       .  S
O64          C72   1.253       .  A
O65        Cr761   2.022   1_455  S
O65         C410   1.269       .  A
C66          O67   1.252   1_565  A
C66         O409   1.269       .  A
C66         C100   1.466       .  S
O67         Cr74   1.936       .  S
O68         Cr74   2.016       .  S
O68          C69   1.266       .  A
C69         O758   1.252   1_455  A
C69         C119   1.471       .  S
O70        Cr419   1.944       .  S
O70         C757   1.252       .  A
O71         Cr75   2.017       .  S
O71          C72   1.269       .  A
C72         C148   1.465       .  S
Cr73        O744   1.945       .  S
Cr73        O753   2.022       .  S
Cr73       O1108   1.780       .  S
Cr74         O76   1.779   1_545  S
Cr75        O405   2.022       .  S
Cr75        O414   1.944       .  S
Cr75       O1108   1.772       .  S
O76       Cr1105   1.780   1_455  S
O76       Cr1107   1.772   1_465  S
C77          C82   1.387       .  A
C77          C78   1.393   1_545  A
C77          S83   1.703   1_545  A
C78          C79   1.397   1_565  A
C78          H89   1.083       .  S
C79          C88   1.356   1_545  A
C79          C80   1.387       .  A
C80          C81   1.400       .  A
C80          S86   1.714       .  A
C81          C82   1.404       .  A
C81         H434   1.083       .  S
C82          C85   1.363       .  A
S83          C84   1.721   1_565  A
C84          C85   1.389       .  A
C85          H91   1.083       .  S
S86          C87   1.719       .  A
C87          C88   1.382   1_545  A
C88          H92   1.083       .  S
H90         C425   1.083       .  S
C93          C98   1.386       .  A
C93          C94   1.400       .  A
C93          S99   1.716       .  A
C94          C95   1.404       .  A
C94         H105   1.081       .  S
C95         C104   1.363       .  A
C95          C96   1.388       .  A
C96          C97   1.395   1_565  A
C96         S102   1.707   1_565  A
C97          C98   1.400   1_545  A
C97         H450   1.082       .  S
C98         C101   1.356   1_565  A
S99         C100   1.720       .  A
C100        C101   1.387   1_565  A
C101        H451   1.083       .  S
S102        C103   1.717   1_545  A
C103        C104   1.384       .  A
C104        H108   1.082       .  S
H106        C441   1.082       .  S
H107        C445   1.083       .  S
C109        C114   1.387   1_655  A
C109        C110   1.396       .  A
C109        S115   1.709       .  A
C110        C111   1.400       .  A
C110        H121   1.082       .  S
C111        C120   1.359       .  A
C111        C112   1.385   1_655  A
C112        C113   1.402       .  A
C112        S118   1.717       .  A
C113        C114   1.406       .  A
C113        H810   1.083       .  S
C114        C117   1.367       .  A
S115        C116   1.718   1_655  A
C116        C117   1.387       .  A
C117        H123   1.083       .  S
S118        C119   1.723       .  A
C119        C120   1.387   1_455  A
C120        H124   1.082       .  S
H122        C801   1.083       .  S
C125        C126   1.404       .  A
C125        C818   1.386       .  A
C125        S131   1.705       .  A
C126        C127   1.404       .  A
C126        H137   1.084       .  S
C127        C136   1.375       .  A
C127        C816   1.388       .  A
C128        C129   1.397       .  A
C128        C815   1.388   1_455  A
C128        S134   1.696       .  A
C129        C130   1.397       .  A
C129        H138   1.084       .  S
C130        C133   1.366       .  A
C130        C813   1.386   1_455  A
S131        C820   1.732       .  A
C132        C133   1.386   1_655  A
C132        S819   1.732       .  A
C133        H139   1.084       .  S
S134        C135   1.724       .  A
C135        C824   1.387   1_455  A
C136        C823   1.387       .  A
C136        H140   1.083       .  S
C141        C146   1.386       .  A
C141        C142   1.398       .  A
C141        S147   1.713       .  A
C142        C143   1.402       .  A
C142        H153   1.084       .  S
C143        C152   1.361       .  A
C143        C144   1.388       .  A
C144        C145   1.395       .  A
C144        S150   1.706       .  A
C145        C146   1.399       .  A
C145        H154   1.084       .  S
C146        C149   1.356       .  A
S147        C148   1.720       .  A
C148        C149   1.387       .  A
C149        H155   1.084       .  S
S150        C151   1.718       .  A
C151        C152   1.382       .  A
C152        H156   1.084       .  S
C157        C162   1.386       .  A
C157        C158   1.399       .  A
C157        S163   1.711       .  A
C158        C159   1.402       .  A
C158        H169   1.083       .  S
C159        C168   1.364       .  A
C159        C160   1.385       .  A
C160        C161   1.396       .  A
C160        S166   1.702       .  A
C161        C162   1.399       .  A
C161        H170   1.084       .  S
C162        C165   1.359       .  A
S163        C164   1.721       .  A
C164        C165   1.386       .  A
C165        H171   1.085       .  S
S166        C167   1.726       .  A
C167        C168   1.391       .  A
C168        H172   1.080       .  S
C173        C178   1.417       .  A
C174        C175   1.415       .  A
C174        H179   1.085       .  S
C175        C176   1.405       .  A
C175        C220   1.493       .  S
C176        H180   1.085       .  S
C177        C178   1.408       .  A
C178        H181   1.084       .  S
C182        C183   1.414       .  A
C182        C187   1.408       .  A
C182        C198   1.499       .  S
C183        C184   1.405       .  A
C183        H188   1.084       .  S
C184        C185   1.414       .  A
C184        C217   1.495       .  S
C185        C186   1.403       .  A
C185        H189   1.084       .  S
C186        C187   1.417       .  A
C186        C208   1.497       .  S
C187        H190   1.084       .  S
C191        C192   1.529       .  S
C191        C197   1.529       .  S
C191        C195   1.545       .  S
C191        C339   1.509       .  S
C192        H199   1.084       .  S
C192        C193   1.361       .  D
C194        C196   1.530       .  S
C194        H200   1.111       .  S
C195        H201   1.086       .  S
C196        C323   1.459       .  S
C197        H202   1.088       .  S
C197        C198   1.364       .  D
C203        C204   1.548       .  S
C203        C897   1.524       .  S
C203        C207   1.533   1_655  S
C203        C304   1.516       .  S
C204        H211   1.086       .  S
C205        C288   1.469       .  S
C205        C206   1.531       .  S
C206        C726   1.560   1_455  S
C206        H212   1.111       .  S
C207        H213   1.087       .  S
C207        C208   1.362       .  D
C209        C891   1.524       .  S
C209        H214   1.086       .  S
C209        C210   1.361       .  D
C210        C722   1.560       .  S
C215        C560   1.527   1_545  S
C215        C221   1.550   1_545  S
C215        C219   1.515       .  S
C215        C256   1.503       .  S
C216        C559   1.527       .  S
C216        H223   1.088       .  S
C216        C217   1.366       .  D
C217        C390   1.555       .  S
C218        C389   1.555   1_545  S
C218        C222   1.531   1_545  S
C218        H224   1.111   1_545  S
C219        H225   1.088       .  S
C219        C220   1.358       .  D
C221        H226   1.085       .  S
C222        C275   1.465       .  S
O227       Cr245   2.016       .  S
O227        C235   1.267       .  A
O228       Cr933   1.945   1_455  S
O228        C573   1.254       .  A
C229        O572   1.254       .  A
C229        O230   1.265   1_565  A
C229        C259   1.456   1_565  S
O230       Cr246   2.014       .  S
O231       Cr246   1.945       .  S
O231        C232   1.255       .  A
C232        O921   1.271   1_455  A
C232        C307   1.468       .  S
O233       Cr591   2.022       .  S
O233        C920   1.271       .  A
O234       Cr247   1.942       .  S
O234        C235   1.253       .  A
C235        C336   1.465       .  S
O236       Cr245   1.934       .  S
O236        C244   1.253       .  A
O237       Cr933   2.022   1_455  S
O237        C582   1.269       .  A
C238        O581   1.269       .  A
C238        O239   1.252   1_565  A
C238        C272   1.466       .  S
O239       Cr246   1.936       .  S
O240       Cr246   2.016       .  S
O240        C241   1.266       .  A
C241        O930   1.252   1_455  A
C241        C291   1.471       .  S
O242       Cr591   1.944       .  S
O242        C929   1.252       .  A
O243       Cr247   2.017       .  S
O243        C244   1.269       .  A
C244        C320   1.465       .  S
Cr245       O916   1.945       .  S
Cr245       O925   2.022       .  S
Cr245      O1280   1.780       .  S
Cr246       O248   1.779   1_545  S
Cr247       O577   2.022       .  S
Cr247       O586   1.944       .  S
Cr247      O1280   1.772       .  S
O248      Cr1277   1.780   1_455  S
O248      Cr1279   1.772   1_465  S
C249        C254   1.387       .  A
C249        C250   1.393   1_545  A
C249        S255   1.703   1_545  A
C250        C251   1.397   1_565  A
C250        H261   1.083       .  S
C251        C260   1.356   1_545  A
C251        C252   1.387       .  A
C252        C253   1.400       .  A
C252        S258   1.714       .  A
C253        C254   1.404       .  A
C253        H606   1.083       .  S
C254        C257   1.363       .  A
S255        C256   1.721   1_565  A
C256        C257   1.389       .  A
C257        H263   1.083       .  S
S258        C259   1.719       .  A
C259        C260   1.381   1_545  A
C260        H264   1.083       .  S
H262        C597   1.083       .  S
C265        C270   1.386       .  A
C265        C266   1.400       .  A
C265        S271   1.716       .  A
C266        C267   1.404       .  A
C266        H277   1.081       .  S
C267        C276   1.363       .  A
C267        C268   1.388       .  A
C268        C269   1.395   1_565  A
C268        S274   1.707   1_565  A
C269        C270   1.400   1_545  A
C269        H622   1.082       .  S
C270        C273   1.356   1_565  A
S271        C272   1.720       .  A
C272        C273   1.387   1_565  A
C273        H623   1.083       .  S
S274        C275   1.717   1_545  A
C275        C276   1.384       .  A
C276        H280   1.082       .  S
H278        C613   1.082       .  S
H279        C617   1.083       .  S
C281        C286   1.387   1_655  A
C281        C282   1.396       .  A
C281        S287   1.709       .  A
C282        C283   1.400       .  A
C282        H293   1.082       .  S
C283        C292   1.359       .  A
C283        C284   1.385   1_655  A
C284        C285   1.402       .  A
C284        S290   1.717       .  A
C285        C286   1.406       .  A
C285        H982   1.083       .  S
C286        C289   1.367       .  A
S287        C288   1.718   1_655  A
C288        C289   1.387       .  A
C289        H295   1.083       .  S
S290        C291   1.723       .  A
C291        C292   1.387   1_455  A
C292        H296   1.082       .  S
H294        C973   1.083       .  S
C297        C990   1.386       .  A
C297        C298   1.404       .  A
C297        S303   1.705       .  A
C298        C299   1.404       .  A
C298        H309   1.084       .  S
C299        C308   1.375       .  A
C299        C988   1.388       .  A
C300        C987   1.388   1_455  A
C300        C301   1.397       .  A
C300        S306   1.696       .  A
C301        C302   1.397       .  A
C301        H310   1.084       .  S
C302        C985   1.386   1_455  A
C302        C305   1.366       .  A
S303        C992   1.732       .  A
C304        C305   1.386   1_655  A
C304        S991   1.732       .  A
C305        H311   1.084       .  S
S306        C307   1.724       .  A
C307        C996   1.388   1_455  A
C308        C995   1.388       .  A
C308        H312   1.083       .  S
C313        C318   1.386       .  A
C313        C314   1.398       .  A
C313        S319   1.713       .  A
C314        C315   1.402       .  A
C314        H325   1.084       .  S
C315        C324   1.361       .  A
C315        C316   1.388       .  A
C316        C317   1.395       .  A
C316        S322   1.706       .  A
C317        C318   1.399       .  A
C317        H326   1.084       .  S
C318        C321   1.356       .  A
S319        C320   1.720       .  A
C320        C321   1.387       .  A
C321        H327   1.084       .  S
S322        C323   1.718       .  A
C323        C324   1.382       .  A
C324        H328   1.084       .  S
C329        C334   1.386       .  A
C329        C330   1.399       .  A
C329        S335   1.711       .  A
C330        C331   1.402       .  A
C330        H341   1.083       .  S
C331        C340   1.364       .  A
C331        C332   1.385       .  A
C332        C333   1.396       .  A
C332        S338   1.702       .  A
C333        C334   1.399       .  A
C333        H342   1.084       .  S
C334        C337   1.359       .  A
S335        C336   1.721       .  A
C336        C337   1.386       .  A
C337        H343   1.085       .  S
S338        C339   1.726       .  A
C339        C340   1.391       .  A
C340        H344   1.080       .  S
C345        C518   1.404       .  A
C345        C350   1.417       .  A
C345        C537   1.500       .  S
C346        C517   1.404       .  A
C346        C347   1.415       .  A
C346        H351   1.085       .  S
C347        C348   1.405       .  A
C347        C392   1.493       .  S
C348        C521   1.414       .  A
C348        H352   1.085       .  S
C349        C520   1.414       .  A
C349        C350   1.408       .  A
C349        C554   1.496       .  S
C350        H353   1.084       .  S
C354        C355   1.414       .  A
C354        C359   1.408       .  A
C354        C370   1.499   1_556  S
C355        C356   1.405       .  A
C355        H360   1.084       .  S
C356        C357   1.413       .  A
C356        C389   1.495       .  S
C357        C358   1.403       .  A
C357        H361   1.084       .  S
C358        C359   1.417       .  A
C358        C380   1.497   1_556  S
C359        H362   1.084       .  S
C363        C364   1.529       .  S
C363        C369   1.529       .  S
C363        C367   1.545       .  S
C363        C511   1.509       .  S
C364        H371   1.084       .  S
C364        C365   1.361   1_554  D
C365        C517   1.500       .  S
C365        C538   1.558       .  S
C366        C537   1.558       .  S
C366        C542   1.556       .  S
C366        C368   1.530       .  S
C366        H372   1.111       .  S
C367        H373   1.086       .  S
C367        C540   1.365   1_554  D
C368        C495   1.459       .  S
C368        C539   1.365       .  D
C369        H374   1.088       .  S
C369        C370   1.364       .  D
C370        C538   1.556   1_554  S
C375        C376   1.548       .  S
C375       C1069   1.524       .  S
C375        C379   1.533   1_655  S
C375        C476   1.516       .  S
C376        H383   1.086       .  S
C376        C549   1.371   1_654  D
C377        C460   1.469       .  S
C377        C378   1.531       .  S
C377        C548   1.371   1_455  D
C378       C1242   1.560   1_455  S
C378        C552   1.553       .  S
C378        H384   1.111       .  S
C379        H385   1.087       .  S
C379        C380   1.362       .  D
C380        C550   1.553   1_554  S
C381       C1063   1.524       .  S
C381        H386   1.086       .  S
C381        C382   1.361   1_554  D
C382        C521   1.496       .  S
C382       C1238   1.560       .  S
C387        C393   1.550       .  S
C387        C391   1.515       .  S
C387        C428   1.503       .  S
C388        H395   1.088       .  S
C388        C389   1.366   1_554  D
C390        C394   1.531       .  S
C390        C564   1.559       .  S
C390        H396   1.111       .  S
C391        H397   1.088       .  S
C391        C392   1.358   1_554  D
C392        C562   1.559       .  S
C393        H398   1.085       .  S
C393        C566   1.367   1_554  D
C394        C447   1.465       .  S
C394        C565   1.367       .  D
O399       Cr417   2.016       .  S
O399        C407   1.267       .  A
O400      Cr1105   1.945   1_455  S
C401        O402   1.265       .  A
C401        C431   1.456       .  S
O402       Cr418   2.014       .  S
O403       Cr418   1.945       .  S
O403        C404   1.255       .  A
C404       O1093   1.271   1_455  A
C404        C479   1.468       .  S
O405       C1092   1.271       .  A
O406       Cr419   1.941   1_565  S
O406        C407   1.253       .  A
C407        C508   1.465       .  S
O408       Cr417   1.934       .  S
O408        C416   1.253       .  A
O409      Cr1105   2.022   1_455  S
C410        O411   1.252       .  A
C410        C444   1.466       .  S
O411       Cr418   1.936       .  S
O412       Cr418   2.016       .  S
O412        C413   1.266       .  A
C413       O1102   1.252   1_455  A
C413        C463   1.471       .  S
O414       C1101   1.252       .  A
O415       Cr419   2.017   1_565  S
O415        C416   1.269       .  A
C416        C492   1.465       .  S
Cr417      O1088   1.945       .  S
Cr417      O1097   2.022       .  S
Cr417       O764   1.780       .  S
Cr418       O420   1.779       .  S
Cr419       O764   1.772   1_545  S
O420       Cr761   1.780   1_455  S
O420       Cr763   1.772   1_455  S
C421        C426   1.387       .  A
C421        C422   1.393       .  A
C421        S427   1.703       .  A
C422        C423   1.397       .  A
C422        H433   1.083       .  S
C423        C432   1.356       .  A
C423        C424   1.387       .  A
C424        C425   1.400       .  A
C424        S430   1.714       .  A
C425        C426   1.404       .  A
C426        C429   1.363       .  A
S427        C428   1.721       .  A
C428        C429   1.389       .  A
C429        H435   1.083       .  S
S430        C431   1.719       .  A
C431        C432   1.382       .  A
C432        H436   1.083       .  S
C437        C442   1.386       .  A
C437        C438   1.400       .  A
C437        S443   1.716       .  A
C438        C439   1.404       .  A
C438        H449   1.081       .  S
C439        C448   1.363       .  A
C439        C440   1.388       .  A
C440        C441   1.395       .  A
C440        S446   1.707       .  A
C441        C442   1.400       .  A
C442        C445   1.356       .  A
S443        C444   1.720       .  A
C444        C445   1.387       .  A
S446        C447   1.717       .  A
C447        C448   1.384       .  A
C448        H452   1.082       .  S
C453        C458   1.387   1_655  A
C453        C454   1.396       .  A
C453        S459   1.709       .  A
C454        C455   1.400       .  A
C454        H465   1.082       .  S
C455        C464   1.359       .  A
C455        C456   1.385   1_655  A
C456        C457   1.402       .  A
C456        S462   1.717       .  A
C457        C458   1.407       .  A
C457       H1154   1.083       .  S
C458        C461   1.367       .  A
S459        C460   1.718   1_655  A
C460        C461   1.387       .  A
C461        H467   1.083       .  S
S462        C463   1.723       .  A
C463        C464   1.387   1_455  A
C464        H468   1.082       .  S
H466       C1145   1.083       .  S
C469       C1162   1.386       .  A
C469        C470   1.404       .  A
C469        S475   1.705       .  A
C470        C471   1.404       .  A
C470        H481   1.084       .  S
C471        C480   1.375       .  A
C471       C1160   1.388       .  A
C472       C1159   1.388   1_455  A
C472        C473   1.397       .  A
C472        S478   1.696       .  A
C473        C474   1.397       .  A
C473        H482   1.084       .  S
C474       C1157   1.386   1_455  A
C474        C477   1.366       .  A
S475       C1164   1.732       .  A
C476        C477   1.386   1_655  A
C476       S1163   1.732       .  A
C477        H483   1.084       .  S
S478        C479   1.724       .  A
C479       C1168   1.387   1_455  A
C480       C1167   1.387       .  A
C480        H484   1.083       .  S
C485        C490   1.386       .  A
C485        C486   1.398       .  A
C485        S491   1.713       .  A
C486        C487   1.402       .  A
C486        H497   1.084       .  S
C487        C496   1.361       .  A
C487        C488   1.388       .  A
C488        C489   1.395       .  A
C488        S494   1.706       .  A
C489        C490   1.399       .  A
C489        H498   1.084       .  S
C490        C493   1.356       .  A
S491        C492   1.720       .  A
C492        C493   1.387       .  A
C493        H499   1.084       .  S
S494        C495   1.718       .  A
C495        C496   1.382       .  A
C496        H500   1.084       .  S
C501        C506   1.386       .  A
C501        C502   1.399       .  A
C501        S507   1.711       .  A
C502        C503   1.402       .  A
C502        H513   1.083       .  S
C503        C512   1.364       .  A
C503        C504   1.385       .  A
C504        C505   1.396       .  A
C504        S510   1.702       .  A
C505        C506   1.399       .  A
C505        H514   1.084       .  S
C506        C509   1.359       .  A
S507        C508   1.721       .  A
C508        C509   1.386       .  A
C509        H515   1.085       .  S
S510        C511   1.726       .  A
C511        C512   1.391       .  A
C512        H516   1.080       .  S
C517        C522   1.417       .  A
C518        C519   1.415       .  A
C518        H523   1.085       .  S
C519        C520   1.405       .  A
C519        C564   1.493       .  S
C520        H524   1.085       .  S
C521        C522   1.408       .  A
C522        H525   1.084       .  S
C526        C527   1.414       .  A
C526        C531   1.408       .  A
C526        C542   1.499       .  S
C527        C528   1.405       .  A
C527        H532   1.084       .  S
C528        C529   1.413       .  A
C528        C561   1.495       .  S
C529        C530   1.403       .  A
C529        H533   1.084       .  S
C530        C531   1.417       .  A
C530        C552   1.497       .  S
C531        H534   1.084       .  S
C535        C536   1.529       .  S
C535        C541   1.529       .  S
C535        C539   1.545       .  S
C535        C683   1.509       .  S
C536        H543   1.084       .  S
C536        C537   1.361       .  D
C538        C540   1.530       .  S
C538        H544   1.111       .  S
C539        H545   1.086       .  S
C540        C667   1.459       .  S
C541        H546   1.088       .  S
C541        C542   1.364       .  D
C547        C548   1.548       .  S
C547       C1241   1.524       .  S
C547        C551   1.533   1_655  S
C547        C648   1.516       .  S
C548        H555   1.086       .  S
C549        C632   1.469       .  S
C549        C550   1.531       .  S
C550       C1070   1.560   1_455  S
C550        H556   1.111       .  S
C551        H557   1.087       .  S
C551        C552   1.362       .  D
C553       C1235   1.524       .  S
C553        H558   1.086       .  S
C553        C554   1.361       .  D
C554       C1066   1.560       .  S
C559        C565   1.550       .  S
C559        C563   1.515       .  S
C559        C600   1.503       .  S
C560        H567   1.088       .  S
C560        C561   1.366       .  D
C562        C566   1.531       .  S
C562        H568   1.111       .  S
C563        H569   1.088       .  S
C563        C564   1.358       .  D
C565        H570   1.085       .  S
C566        C619   1.465       .  S
O571       Cr589   2.016       .  S
O571        C579   1.267       .  A
O572      Cr1277   1.945   1_455  S
C573        O574   1.265       .  A
C573        C603   1.456       .  S
O574       Cr590   2.014       .  S
O575       Cr590   1.945       .  S
O575        C576   1.255       .  A
C576       O1265   1.271   1_455  A
C576        C651   1.468       .  S
O577       C1264   1.271       .  A
O578       Cr591   1.941   1_565  S
O578        C579   1.253       .  A
C579        C680   1.465       .  S
O580       Cr589   1.934       .  S
O580        C588   1.253       .  A
O581      Cr1277   2.022   1_455  S
C582        O583   1.252       .  A
C582        C616   1.466       .  S
O583       Cr590   1.936       .  S
O584       Cr590   2.016       .  S
O584        C585   1.266       .  A
C585       O1274   1.252   1_455  A
C585        C635   1.471       .  S
O586       C1273   1.252       .  A
O587       Cr591   2.017   1_565  S
O587        C588   1.269       .  A
C588        C664   1.465       .  S
Cr589      O1260   1.945       .  S
Cr589      O1269   2.022       .  S
Cr589       O936   1.780       .  S
Cr590       O592   1.779       .  S
Cr591       O936   1.772   1_545  S
O592       Cr933   1.780   1_455  S
O592       Cr935   1.772   1_455  S
C593        C598   1.387       .  A
C593        C594   1.393       .  A
C593        S599   1.703       .  A
C594        C595   1.397       .  A
C594        H605   1.083       .  S
C595        C604   1.356       .  A
C595        C596   1.387       .  A
C596        C597   1.400       .  A
C596        S602   1.714       .  A
C597        C598   1.404       .  A
C598        C601   1.363       .  A
S599        C600   1.721       .  A
C600        C601   1.389       .  A
C601        H607   1.083       .  S
S602        C603   1.719       .  A
C603        C604   1.382       .  A
C604        H608   1.083       .  S
C609        C614   1.386       .  A
C609        C610   1.400       .  A
C609        S615   1.716       .  A
C610        C611   1.404       .  A
C610        H621   1.081       .  S
C611        C620   1.363       .  A
C611        C612   1.388       .  A
C612        C613   1.395       .  A
C612        S618   1.707       .  A
C613        C614   1.400       .  A
C614        C617   1.356       .  A
S615        C616   1.720       .  A
C616        C617   1.387       .  A
S618        C619   1.717       .  A
C619        C620   1.384       .  A
C620        H624   1.082       .  S
C625        C630   1.387   1_655  A
C625        C626   1.396       .  A
C625        S631   1.709       .  A
C626        C627   1.400       .  A
C626        H637   1.082       .  S
C627        C636   1.359       .  A
C627        C628   1.385   1_655  A
C628        C629   1.402       .  A
C628        S634   1.717       .  A
C629        C630   1.406       .  A
C629       H1326   1.083       .  S
C630        C633   1.367       .  A
S631        C632   1.718   1_655  A
C632        C633   1.387       .  A
C633        H639   1.083       .  S
S634        C635   1.723       .  A
C635        C636   1.387   1_455  A
C636        H640   1.082       .  S
H638       C1317   1.083       .  S
C641       C1334   1.386       .  A
C641        C642   1.404       .  A
C641        S647   1.705       .  A
C642        C643   1.404       .  A
C642        H653   1.084       .  S
C643        C652   1.375       .  A
C643       C1332   1.388       .  A
C644       C1331   1.388   1_455  A
C644        C645   1.397       .  A
C644        S650   1.696       .  A
C645        C646   1.397       .  A
C645        H654   1.084       .  S
C646       C1329   1.386   1_455  A
C646        C649   1.366       .  A
S647       C1336   1.732       .  A
C648        C649   1.386   1_655  A
C648       S1335   1.732       .  A
C649        H655   1.084       .  S
S650        C651   1.724       .  A
C651       C1340   1.388   1_455  A
C652       C1339   1.388       .  A
C652        H656   1.083       .  S
C657        C662   1.386       .  A
C657        C658   1.398       .  A
C657        S663   1.713       .  A
C658        C659   1.402       .  A
C658        H669   1.084       .  S
C659        C668   1.361       .  A
C659        C660   1.388       .  A
C660        C661   1.395       .  A
C660        S666   1.706       .  A
C661        C662   1.399       .  A
C661        H670   1.084       .  S
C662        C665   1.356       .  A
S663        C664   1.720       .  A
C664        C665   1.387       .  A
C665        H671   1.084       .  S
S666        C667   1.718       .  A
C667        C668   1.382       .  A
C668        H672   1.084       .  S
C673        C678   1.386       .  A
C673        C674   1.399       .  A
C673        S679   1.711       .  A
C674        C675   1.402       .  A
C674        H685   1.083       .  S
C675        C684   1.364       .  A
C675        C676   1.385       .  A
C676        C677   1.396       .  A
C676        S682   1.702       .  A
C677        C678   1.399       .  A
C677        H686   1.084       .  S
C678        C681   1.359       .  A
S679        C680   1.721       .  A
C680        C681   1.386       .  A
C681        H687   1.085       .  S
S682        C683   1.726       .  A
C683        C684   1.391       .  A
C684        H688   1.080       .  S
C689        C862   1.404       .  A
C689        C694   1.417       .  A
C689        C881   1.500       .  S
C690        C861   1.404       .  A
C690        C691   1.415       .  A
C690        H695   1.085       .  S
C691        C692   1.405       .  A
C691        C736   1.493       .  S
C692        C865   1.414       .  A
C692        H696   1.085       .  S
C693        C864   1.414       .  A
C693        C694   1.408       .  A
C693        C898   1.497       .  S
C694        H697   1.084       .  S
C698        C699   1.414       .  A
C698        C703   1.408       .  A
C698        C714   1.499   1_556  S
C699        C700   1.405       .  A
C699        H704   1.084       .  S
C700        C701   1.413       .  A
C700        C733   1.495       .  S
C701        C702   1.403       .  A
C701        H705   1.084       .  S
C702        C703   1.417       .  A
C702        C724   1.497   1_556  S
C703        H706   1.084       .  S
C707        C708   1.529       .  S
C707        C713   1.529       .  S
C707        C711   1.545       .  S
C707        C855   1.509       .  S
C708        H715   1.084       .  S
C708        C709   1.361   1_554  D
C709        C861   1.500       .  S
C709        C882   1.558       .  S
C710        C881   1.558       .  S
C710        C886   1.556       .  S
C710        C712   1.530       .  S
C710        H716   1.111       .  S
C711        H717   1.086       .  S
C711        C884   1.365   1_554  D
C712        C839   1.459       .  S
C712        C883   1.365       .  D
C713        H718   1.088       .  S
C713        C714   1.364       .  D
C714        C882   1.556   1_554  S
C719        C720   1.548       .  S
C719        C723   1.533       .  S
C719        C820   1.516       .  S
C720        H727   1.086       .  S
C720        C893   1.371   1_554  D
C721        C804   1.469       .  S
C721        C722   1.531       .  S
C721        C892   1.371       .  D
C722        C896   1.553       .  S
C722        H728   1.111       .  S
C723        H729   1.087       .  S
C723        C724   1.362       .  D
C724        C894   1.553   1_554  S
C725        H730   1.086       .  S
C725        C726   1.361   1_554  D
C726        C865   1.497       .  S
C731       C1076   1.527   1_545  S
C731        C737   1.550   1_545  S
C731        C735   1.515       .  S
C731        C772   1.503       .  S
C732       C1075   1.527       .  S
C732        H739   1.088       .  S
C732        C733   1.366   1_554  D
C733       C1250   1.555       .  S
C734       C1249   1.555   1_545  S
C734        C738   1.531   1_545  S
C734        C908   1.559       .  S
C734        H740   1.111   1_545  S
C735        H741   1.088       .  S
C735        C736   1.358   1_554  D
C736        C906   1.559       .  S
C737        H742   1.085       .  S
C737        C910   1.367   1_554  D
C738        C791   1.465       .  S
C738        C909   1.367       .  D
O743       Cr761   2.016       .  S
O743        C751   1.267       .  A
O744       C1089   1.254       .  A
C745       O1088   1.253       .  A
C745        O746   1.265   1_565  A
C745        C775   1.456   1_565  S
O746       Cr762   2.014       .  S
O747       Cr762   1.945       .  S
O747        C748   1.255       .  A
C748        C823   1.468       .  S
O749      Cr1107   2.022       .  S
O750       Cr763   1.942       .  S
O750        C751   1.253       .  A
C751        C852   1.465       .  S
O752       Cr761   1.934       .  S
O752        C760   1.253       .  A
O753       C1098   1.269       .  A
C754       O1097   1.269       .  A
C754        O755   1.252   1_565  A
C754        C788   1.466       .  S
O755       Cr762   1.936       .  S
O756       Cr762   2.016       .  S
O756        C757   1.266       .  A
C757        C807   1.471       .  S
O758      Cr1107   1.944       .  S
O759       Cr763   2.017       .  S
O759        C760   1.269       .  A
C760        C836   1.465       .  S
Cr762       O764   1.779   1_545  S
Cr763      O1093   2.022       .  S
Cr763      O1102   1.944       .  S
C765        C770   1.387       .  A
C765        C766   1.393   1_545  A
C765        S771   1.703   1_545  A
C766        C767   1.397   1_565  A
C766        H777   1.083       .  S
C767        C776   1.356   1_545  A
C767        C768   1.387       .  A
C768        C769   1.400       .  A
C768        S774   1.714       .  A
C769        C770   1.404       .  A
C769       H1122   1.083       .  S
C770        C773   1.363       .  A
S771        C772   1.721   1_565  A
C772        C773   1.389       .  A
C773        H779   1.083       .  S
S774        C775   1.719       .  A
C775        C776   1.382   1_545  A
C776        H780   1.083       .  S
H778       C1113   1.083       .  S
C781        C786   1.386       .  A
C781        C782   1.400       .  A
C781        S787   1.716       .  A
C782        C783   1.404       .  A
C782        H793   1.081       .  S
C783        C792   1.363       .  A
C783        C784   1.388       .  A
C784        C785   1.395   1_565  A
C784        S790   1.707   1_565  A
C785        C786   1.400   1_545  A
C785       H1138   1.082       .  S
C786        C789   1.356   1_565  A
S787        C788   1.720       .  A
C788        C789   1.387   1_565  A
C789       H1139   1.083       .  S
S790        C791   1.717   1_545  A
C791        C792   1.384       .  A
C792        H796   1.082       .  S
H794       C1129   1.082       .  S
H795       C1133   1.083       .  S
C797        C802   1.387       .  A
C797        C798   1.396       .  A
C797        S803   1.709       .  A
C798        C799   1.400       .  A
C798        H809   1.082       .  S
C799        C808   1.359       .  A
C799        C800   1.385       .  A
C800        C801   1.402       .  A
C800        S806   1.717       .  A
C801        C802   1.406       .  A
C802        C805   1.367       .  A
S803        C804   1.718       .  A
C804        C805   1.387       .  A
C805        H811   1.083       .  S
S806        C807   1.723       .  A
C807        C808   1.387       .  A
C808        H812   1.082       .  S
C813        C814   1.404       .  A
C813        S819   1.705       .  A
C814        C815   1.404       .  A
C814        H825   1.084       .  S
C815        C824   1.375       .  A
C816        C817   1.397       .  A
C816        S822   1.696       .  A
C817        C818   1.397       .  A
C817        H826   1.084       .  S
C818        C821   1.366       .  A
C820        C821   1.386       .  A
C821        H827   1.084       .  S
S822        C823   1.724       .  A
C824        H828   1.083       .  S
C829        C834   1.386       .  A
C829        C830   1.398       .  A
C829        S835   1.713       .  A
C830        C831   1.402       .  A
C830        H841   1.084       .  S
C831        C840   1.361       .  A
C831        C832   1.388       .  A
C832        C833   1.395       .  A
C832        S838   1.706       .  A
C833        C834   1.399       .  A
C833        H842   1.084       .  S
C834        C837   1.356       .  A
S835        C836   1.720       .  A
C836        C837   1.387       .  A
C837        H843   1.084       .  S
S838        C839   1.718       .  A
C839        C840   1.382       .  A
C840        H844   1.084       .  S
C845        C850   1.386       .  A
C845        C846   1.399       .  A
C845        S851   1.711       .  A
C846        C847   1.402       .  A
C846        H857   1.083       .  S
C847        C856   1.364       .  A
C847        C848   1.385       .  A
C848        C849   1.396       .  A
C848        S854   1.702       .  A
C849        C850   1.399       .  A
C849        H858   1.084       .  S
C850        C853   1.359       .  A
S851        C852   1.721       .  A
C852        C853   1.386       .  A
C853        H859   1.085       .  S
S854        C855   1.726       .  A
C855        C856   1.391       .  A
C856        H860   1.080       .  S
C861        C866   1.417       .  A
C862        C863   1.415       .  A
C862        H867   1.085       .  S
C863        C864   1.405       .  A
C863        C908   1.493       .  S
C864        H868   1.085       .  S
C865        C866   1.408       .  A
C866        H869   1.084       .  S
C870        C871   1.414       .  A
C870        C875   1.408       .  A
C870        C886   1.499       .  S
C871        C872   1.405       .  A
C871        H876   1.084       .  S
C872        C873   1.414       .  A
C872        C905   1.495       .  S
C873        C874   1.403       .  A
C873        H877   1.084       .  S
C874        C875   1.417       .  A
C874        C896   1.497       .  S
C875        H878   1.084       .  S
C879        C880   1.529       .  S
C879        C885   1.529       .  S
C879        C883   1.545       .  S
C879       C1027   1.509       .  S
C880        H887   1.084       .  S
C880        C881   1.361       .  D
C882        C884   1.530       .  S
C882        H888   1.111       .  S
C883        H889   1.086       .  S
C884       C1011   1.459       .  S
C885        H890   1.088       .  S
C885        C886   1.364       .  D
C891        C892   1.548       .  S
C891        C895   1.533       .  S
C891        C992   1.516       .  S
C892        H899   1.086       .  S
C893        C976   1.469       .  S
C893        C894   1.531       .  S
C894        H900   1.111       .  S
C895        H901   1.087       .  S
C895        C896   1.362       .  D
C897        H902   1.086       .  S
C897        C898   1.361       .  D
C903       C1248   1.527   1_545  S
C903        C909   1.550   1_545  S
C903        C907   1.515       .  S
C903        C944   1.503       .  S
C904       C1247   1.527       .  S
C904        H911   1.088       .  S
C904        C905   1.366       .  D
C905       C1078   1.555       .  S
C906       C1077   1.555   1_545  S
C906        C910   1.531   1_545  S
C906        H912   1.111   1_545  S
C907        H913   1.088       .  S
C907        C908   1.358       .  D
C909        H914   1.085       .  S
C910        C963   1.465       .  S
O915       Cr933   2.016       .  S
O915        C923   1.267       .  A
O916       C1261   1.254       .  A
C917       O1260   1.254       .  A
C917        O918   1.265   1_565  A
C917        C947   1.456   1_565  S
O918       Cr934   2.014       .  S
O919       Cr934   1.945       .  S
O919        C920   1.255       .  A
C920        C995   1.468       .  S
O921      Cr1279   2.022       .  S
O922       Cr935   1.942       .  S
O922        C923   1.253       .  A
C923       C1024   1.465       .  S
O924       Cr933   1.934       .  S
O924        C932   1.253       .  A
O925       C1270   1.269       .  A
C926       O1269   1.269       .  A
C926        O927   1.252   1_565  A
C926        C960   1.466       .  S
O927       Cr934   1.936       .  S
O928       Cr934   2.016       .  S
O928        C929   1.266       .  A
C929        C979   1.471       .  S
O930      Cr1279   1.944       .  S
O931       Cr935   2.017       .  S
O931        C932   1.269       .  A
C932       C1008   1.465       .  S
Cr934       O936   1.779   1_545  S
Cr935      O1265   2.022       .  S
Cr935      O1274   1.944       .  S
C937        C942   1.387       .  A
C937        C938   1.393   1_545  A
C937        S943   1.703   1_545  A
C938        C939   1.397   1_565  A
C938        H949   1.083       .  S
C939        C948   1.356   1_545  A
C939        C940   1.387       .  A
C940        C941   1.400       .  A
C940        S946   1.714       .  A
C941        C942   1.404       .  A
C941       H1294   1.083       .  S
C942        C945   1.363       .  A
S943        C944   1.721   1_565  A
C944        C945   1.389       .  A
C945        H951   1.083       .  S
S946        C947   1.719       .  A
C947        C948   1.381   1_545  A
C948        H952   1.083       .  S
H950       C1285   1.083       .  S
C953        C958   1.386       .  A
C953        C954   1.400       .  A
C953        S959   1.716       .  A
C954        C955   1.404       .  A
C954        H965   1.081       .  S
C955        C964   1.363       .  A
C955        C956   1.388       .  A
C956        C957   1.395   1_565  A
C956        S962   1.707   1_565  A
C957        C958   1.400   1_545  A
C957       H1310   1.082       .  S
C958        C961   1.356   1_565  A
S959        C960   1.720       .  A
C960        C961   1.387   1_565  A
C961       H1311   1.083       .  S
S962        C963   1.717   1_545  A
C963        C964   1.384       .  A
C964        H968   1.082       .  S
H966       C1301   1.082       .  S
H967       C1305   1.083       .  S
C969        C974   1.387       .  A
C969        C970   1.396       .  A
C969        S975   1.709       .  A
C970        C971   1.400       .  A
C970        H981   1.082       .  S
C971        C980   1.359       .  A
C971        C972   1.385       .  A
C972        C973   1.402       .  A
C972        S978   1.717       .  A
C973        C974   1.406       .  A
C974        C977   1.367       .  A
S975        C976   1.718       .  A
C976        C977   1.387       .  A
C977        H983   1.083       .  S
S978        C979   1.723       .  A
C979        C980   1.387       .  A
C980        H984   1.082       .  S
C985        C986   1.404       .  A
C985        S991   1.705       .  A
C986        C987   1.404       .  A
C986        H997   1.084       .  S
C987        C996   1.375       .  A
C988        C989   1.397       .  A
C988        S994   1.696       .  A
C989        C990   1.397       .  A
C989        H998   1.084       .  S
C990        C993   1.366       .  A
C992        C993   1.386       .  A
C993        H999   1.084       .  S
S994        C995   1.724       .  A
C996       H1000   1.083       .  S
C1001      C1006   1.386       .  A
C1001      C1002   1.398       .  A
C1001      S1007   1.713       .  A
C1002      C1003   1.402       .  A
C1002      H1013   1.084       .  S
C1003      C1012   1.361       .  A
C1003      C1004   1.388       .  A
C1004      C1005   1.395       .  A
C1004      S1010   1.706       .  A
C1005      C1006   1.399       .  A
C1005      H1014   1.084       .  S
C1006      C1009   1.356       .  A
S1007      C1008   1.720       .  A
C1008      C1009   1.387       .  A
C1009      H1015   1.084       .  S
S1010      C1011   1.718       .  A
C1011      C1012   1.382       .  A
C1012      H1016   1.084       .  S
C1017      C1022   1.386       .  A
C1017      C1018   1.399       .  A
C1017      S1023   1.711       .  A
C1018      C1019   1.402       .  A
C1018      H1029   1.083       .  S
C1019      C1028   1.364       .  A
C1019      C1020   1.385       .  A
C1020      C1021   1.396       .  A
C1020      S1026   1.702       .  A
C1021      C1022   1.399       .  A
C1021      H1030   1.084       .  S
C1022      C1025   1.359       .  A
S1023      C1024   1.721       .  A
C1024      C1025   1.386       .  A
C1025      H1031   1.085       .  S
S1026      C1027   1.726       .  A
C1027      C1028   1.391       .  A
C1028      H1032   1.080       .  S
C1033      C1206   1.404       .  A
C1033      C1038   1.417       .  A
C1033      C1225   1.500       .  S
C1034      C1205   1.404       .  A
C1034      C1035   1.415       .  A
C1034      H1039   1.085       .  S
C1035      C1036   1.405       .  A
C1035      C1080   1.493       .  S
C1036      C1209   1.414       .  A
C1036      H1040   1.085       .  S
C1037      C1208   1.414       .  A
C1037      C1038   1.408       .  A
C1037      C1242   1.496       .  S
C1038      H1041   1.084       .  S
C1042      C1043   1.414       .  A
C1042      C1047   1.408       .  A
C1042      C1058   1.499   1_556  S
C1043      C1044   1.405       .  A
C1043      H1048   1.084       .  S
C1044      C1045   1.413       .  A
C1044      C1077   1.495       .  S
C1045      C1046   1.403       .  A
C1045      H1049   1.084       .  S
C1046      C1047   1.417       .  A
C1046      C1068   1.497   1_556  S
C1047      H1050   1.084       .  S
C1051      C1052   1.529       .  S
C1051      C1057   1.529       .  S
C1051      C1055   1.545       .  S
C1051      C1199   1.509       .  S
C1052      H1059   1.084       .  S
C1052      C1053   1.361   1_554  D
C1053      C1205   1.500       .  S
C1053      C1226   1.558       .  S
C1054      C1225   1.558       .  S
C1054      C1230   1.556       .  S
C1054      C1056   1.530       .  S
C1054      H1060   1.111       .  S
C1055      H1061   1.086       .  S
C1055      C1228   1.365   1_554  D
C1056      C1183   1.459       .  S
C1056      C1227   1.365       .  D
C1057      H1062   1.088       .  S
C1057      C1058   1.364       .  D
C1058      C1226   1.556   1_554  S
C1063      C1064   1.548       .  S
C1063      C1067   1.533       .  S
C1063      C1164   1.516       .  S
C1064      H1071   1.086       .  S
C1064      C1237   1.371   1_554  D
C1065      C1148   1.469       .  S
C1065      C1066   1.531       .  S
C1065      C1236   1.371       .  D
C1066      C1240   1.553       .  S
C1066      H1072   1.111       .  S
C1067      H1073   1.087       .  S
C1067      C1068   1.362       .  D
C1068      C1238   1.553   1_554  S
C1069      H1074   1.086       .  S
C1069      C1070   1.361   1_554  D
C1070      C1209   1.496       .  S
C1075      C1081   1.550       .  S
C1075      C1079   1.515       .  S
C1075      C1116   1.503       .  S
C1076      H1083   1.088       .  S
C1076      C1077   1.366   1_554  D
C1078      C1082   1.531       .  S
C1078      C1252   1.559       .  S
C1078      H1084   1.111       .  S
C1079      H1085   1.088       .  S
C1079      C1080   1.358   1_554  D
C1080      C1250   1.559       .  S
C1081      H1086   1.085       .  S
C1081      C1254   1.367   1_554  D
C1082      C1135   1.465       .  S
C1082      C1253   1.367       .  D
O1087     Cr1105   2.016       .  S
O1087      C1095   1.267       .  A
C1089      O1090   1.265       .  A
C1089      C1119   1.456       .  S
O1090     Cr1106   2.014       .  S
O1091     Cr1106   1.945       .  S
O1091      C1092   1.255       .  A
C1092      C1167   1.468       .  S
O1094     Cr1107   1.941   1_565  S
O1094      C1095   1.253       .  A
C1095      C1196   1.465       .  S
O1096     Cr1105   1.934       .  S
O1096      C1104   1.253       .  A
C1098      O1099   1.252       .  A
C1098      C1132   1.466       .  S
O1099     Cr1106   1.936       .  S
O1100     Cr1106   2.016       .  S
O1100      C1101   1.266       .  A
C1101      C1151   1.471       .  S
O1103     Cr1107   2.017   1_565  S
O1103      C1104   1.269       .  A
C1104      C1180   1.465       .  S
Cr1106     O1108   1.779       .  S
C1109      C1114   1.387       .  A
C1109      C1110   1.393       .  A
C1109      S1115   1.703       .  A
C1110      C1111   1.397       .  A
C1110      H1121   1.083       .  S
C1111      C1120   1.356       .  A
C1111      C1112   1.387       .  A
C1112      C1113   1.400       .  A
C1112      S1118   1.714       .  A
C1113      C1114   1.404       .  A
C1114      C1117   1.363       .  A
S1115      C1116   1.721       .  A
C1116      C1117   1.389       .  A
C1117      H1123   1.083       .  S
S1118      C1119   1.719       .  A
C1119      C1120   1.382       .  A
C1120      H1124   1.083       .  S
C1125      C1130   1.386       .  A
C1125      C1126   1.400       .  A
C1125      S1131   1.716       .  A
C1126      C1127   1.404       .  A
C1126      H1137   1.081       .  S
C1127      C1136   1.363       .  A
C1127      C1128   1.388       .  A
C1128      C1129   1.395       .  A
C1128      S1134   1.707       .  A
C1129      C1130   1.400       .  A
C1130      C1133   1.356       .  A
S1131      C1132   1.720       .  A
C1132      C1133   1.387       .  A
S1134      C1135   1.717       .  A
C1135      C1136   1.384       .  A
C1136      H1140   1.082       .  S
C1141      C1146   1.387       .  A
C1141      C1142   1.396       .  A
C1141      S1147   1.709       .  A
C1142      C1143   1.400       .  A
C1142      H1153   1.082       .  S
C1143      C1152   1.359       .  A
C1143      C1144   1.385       .  A
C1144      C1145   1.402       .  A
C1144      S1150   1.717       .  A
C1145      C1146   1.407       .  A
C1146      C1149   1.367       .  A
S1147      C1148   1.718       .  A
C1148      C1149   1.387       .  A
C1149      H1155   1.083       .  S
S1150      C1151   1.723       .  A
C1151      C1152   1.387       .  A
C1152      H1156   1.082       .  S
C1157      C1158   1.404       .  A
C1157      S1163   1.705       .  A
C1158      C1159   1.404       .  A
C1158      H1169   1.084       .  S
C1159      C1168   1.375       .  A
C1160      C1161   1.397       .  A
C1160      S1166   1.696       .  A
C1161      C1162   1.397       .  A
C1161      H1170   1.084       .  S
C1162      C1165   1.366       .  A
C1164      C1165   1.386       .  A
C1165      H1171   1.084       .  S
S1166      C1167   1.724       .  A
C1168      H1172   1.083       .  S
C1173      C1178   1.386       .  A
C1173      C1174   1.398       .  A
C1173      S1179   1.713       .  A
C1174      C1175   1.402       .  A
C1174      H1185   1.084       .  S
C1175      C1184   1.361       .  A
C1175      C1176   1.388       .  A
C1176      C1177   1.395       .  A
C1176      S1182   1.706       .  A
C1177      C1178   1.399       .  A
C1177      H1186   1.084       .  S
C1178      C1181   1.356       .  A
S1179      C1180   1.720       .  A
C1180      C1181   1.387       .  A
C1181      H1187   1.084       .  S
S1182      C1183   1.718       .  A
C1183      C1184   1.382       .  A
C1184      H1188   1.084       .  S
C1189      C1194   1.386       .  A
C1189      C1190   1.399       .  A
C1189      S1195   1.711       .  A
C1190      C1191   1.402       .  A
C1190      H1201   1.083       .  S
C1191      C1200   1.364       .  A
C1191      C1192   1.385       .  A
C1192      C1193   1.396       .  A
C1192      S1198   1.702       .  A
C1193      C1194   1.399       .  A
C1193      H1202   1.084       .  S
C1194      C1197   1.359       .  A
S1195      C1196   1.721       .  A
C1196      C1197   1.386       .  A
C1197      H1203   1.085       .  S
S1198      C1199   1.726       .  A
C1199      C1200   1.391       .  A
C1200      H1204   1.080       .  S
C1205      C1210   1.417       .  A
C1206      C1207   1.415       .  A
C1206      H1211   1.085       .  S
C1207      C1208   1.405       .  A
C1207      C1252   1.493       .  S
C1208      H1212   1.085       .  S
C1209      C1210   1.408       .  A
C1210      H1213   1.084       .  S
C1214      C1215   1.414       .  A
C1214      C1219   1.408       .  A
C1214      C1230   1.499       .  S
C1215      C1216   1.405       .  A
C1215      H1220   1.084       .  S
C1216      C1217   1.413       .  A
C1216      C1249   1.495       .  S
C1217      C1218   1.403       .  A
C1217      H1221   1.084       .  S
C1218      C1219   1.417       .  A
C1218      C1240   1.497       .  S
C1219      H1222   1.084       .  S
C1223      C1224   1.529       .  S
C1223      C1229   1.529       .  S
C1223      C1227   1.545       .  S
C1223      C1371   1.509       .  S
C1224      H1231   1.084       .  S
C1224      C1225   1.361       .  D
C1226      C1228   1.530       .  S
C1226      H1232   1.111       .  S
C1227      H1233   1.086       .  S
C1228      C1355   1.459       .  S
C1229      H1234   1.088       .  S
C1229      C1230   1.364       .  D
C1235      C1236   1.548       .  S
C1235      C1239   1.533       .  S
C1235      C1336   1.516       .  S
C1236      H1243   1.086       .  S
C1237      C1320   1.469       .  S
C1237      C1238   1.531       .  S
C1238      H1244   1.111       .  S
C1239      H1245   1.087       .  S
C1239      C1240   1.362       .  D
C1241      H1246   1.086       .  S
C1241      C1242   1.361       .  D
C1247      C1253   1.550       .  S
C1247      C1251   1.515       .  S
C1247      C1288   1.503       .  S
C1248      H1255   1.088       .  S
C1248      C1249   1.366       .  D
C1250      C1254   1.531       .  S
C1250      H1256   1.111       .  S
C1251      H1257   1.088       .  S
C1251      C1252   1.358       .  D
C1253      H1258   1.085       .  S
C1254      C1307   1.465       .  S
O1259     Cr1277   2.016       .  S
O1259      C1267   1.267       .  A
C1261      O1262   1.265       .  A
C1261      C1291   1.456       .  S
O1262     Cr1278   2.014       .  S
O1263     Cr1278   1.945       .  S
O1263      C1264   1.255       .  A
C1264      C1339   1.468       .  S
O1266     Cr1279   1.941   1_565  S
O1266      C1267   1.253       .  A
C1267      C1368   1.465       .  S
O1268     Cr1277   1.934       .  S
O1268      C1276   1.253       .  A
C1270      O1271   1.252       .  A
C1270      C1304   1.466       .  S
O1271     Cr1278   1.936       .  S
O1272     Cr1278   2.016       .  S
O1272      C1273   1.266       .  A
C1273      C1323   1.471       .  S
O1275     Cr1279   2.017   1_565  S
O1275      C1276   1.269       .  A
C1276      C1352   1.465       .  S
Cr1278     O1280   1.779       .  S
C1281      C1286   1.387       .  A
C1281      C1282   1.393       .  A
C1281      S1287   1.703       .  A
C1282      C1283   1.397       .  A
C1282      H1293   1.083       .  S
C1283      C1292   1.356       .  A
C1283      C1284   1.387       .  A
C1284      C1285   1.400       .  A
C1284      S1290   1.714       .  A
C1285      C1286   1.404       .  A
C1286      C1289   1.363       .  A
S1287      C1288   1.721       .  A
C1288      C1289   1.389       .  A
C1289      H1295   1.083       .  S
S1290      C1291   1.719       .  A
C1291      C1292   1.382       .  A
C1292      H1296   1.083       .  S
C1297      C1302   1.386       .  A
C1297      C1298   1.400       .  A
C1297      S1303   1.716       .  A
C1298      C1299   1.404       .  A
C1298      H1309   1.081       .  S
C1299      C1308   1.363       .  A
C1299      C1300   1.388       .  A
C1300      C1301   1.395       .  A
C1300      S1306   1.707       .  A
C1301      C1302   1.400       .  A
C1302      C1305   1.356       .  A
S1303      C1304   1.720       .  A
C1304      C1305   1.387       .  A
S1306      C1307   1.717       .  A
C1307      C1308   1.384       .  A
C1308      H1312   1.082       .  S
C1313      C1318   1.387       .  A
C1313      C1314   1.396       .  A
C1313      S1319   1.709       .  A
C1314      C1315   1.400       .  A
C1314      H1325   1.082       .  S
C1315      C1324   1.359       .  A
C1315      C1316   1.385       .  A
C1316      C1317   1.402       .  A
C1316      S1322   1.717       .  A
C1317      C1318   1.406       .  A
C1318      C1321   1.367       .  A
S1319      C1320   1.718       .  A
C1320      C1321   1.387       .  A
C1321      H1327   1.083       .  S
S1322      C1323   1.723       .  A
C1323      C1324   1.387       .  A
C1324      H1328   1.082       .  S
C1329      C1330   1.404       .  A
C1329      S1335   1.705       .  A
C1330      C1331   1.404       .  A
C1330      H1341   1.084       .  S
C1331      C1340   1.375       .  A
C1332      C1333   1.397       .  A
C1332      S1338   1.696       .  A
C1333      C1334   1.397       .  A
C1333      H1342   1.084       .  S
C1334      C1337   1.366       .  A
C1336      C1337   1.386       .  A
C1337      H1343   1.084       .  S
S1338      C1339   1.724       .  A
C1340      H1344   1.083       .  S
C1345      C1350   1.386       .  A
C1345      C1346   1.398       .  A
C1345      S1351   1.713       .  A
C1346      C1347   1.402       .  A
C1346      H1357   1.084       .  S
C1347      C1356   1.361       .  A
C1347      C1348   1.388       .  A
C1348      C1349   1.395       .  A
C1348      S1354   1.706       .  A
C1349      C1350   1.399       .  A
C1349      H1358   1.084       .  S
C1350      C1353   1.356       .  A
S1351      C1352   1.720       .  A
C1352      C1353   1.387       .  A
C1353      H1359   1.084       .  S
S1354      C1355   1.718       .  A
C1355      C1356   1.382       .  A
C1356      H1360   1.084       .  S
C1361      C1366   1.386       .  A
C1361      C1362   1.399       .  A
C1361      S1367   1.711       .  A
C1362      C1363   1.402       .  A
C1362      H1373   1.083       .  S
C1363      C1372   1.364       .  A
C1363      C1364   1.385       .  A
C1364      C1365   1.396       .  A
C1364      S1370   1.702       .  A
C1365      C1366   1.399       .  A
C1365      H1374   1.084       .  S
C1366      C1369   1.359       .  A
S1367      C1368   1.721       .  A
C1368      C1369   1.386       .  A
C1369      H1375   1.085       .  S
S1370      C1371   1.726       .  A
C1371      C1372   1.391       .  A
C1372      H1376   1.080       .  S
