geometry optimzed in LAMMPS
_audit_creation_date              2020-11-30 
_audit_creation_method            'lammps2cif' 
_symmetry_space_group_name_H-M    'P1' 
_symmetry_Int_Tables_number       1 
_symmetry_cell_setting            triclinic 
loop_ 
_symmetry_equiv_pos_as_xyz 
  x,y,z 
_cell_length_a                    33.61630716 
_cell_length_b                    42.08072609263003 
_cell_length_c                    39.82246886488781 
_cell_angle_alpha                 89.87340851585624 
_cell_angle_beta                  89.99191499048521 
_cell_angle_gamma                 90.04325668621067 
loop_ 
_atom_site_label 
_atom_site_type_symbol 
_atom_site_fract_x 
_atom_site_fract_y 
_atom_site_fract_z 
_atom_site_charge 
C1          C  0.21021663  0.81770753  0.37328787     0.03500
C2          C  0.19568690  0.81010020  0.40540439    -0.12700
C3          C  0.16543519  0.82847589  0.41982705     0.01000
C4          C  0.14926563  0.85402029  0.40188775    -0.11200
C5          C  0.16366195  0.86173437  0.36995342     0.03400
C6          C  0.19436696  0.84375395  0.35579007    -0.10600
H7          H  0.20794069  0.79017250  0.41909124     0.09000
H8          H  0.12569736  0.86815289  0.41295128     0.06600
H9          H  0.20553230  0.84975361  0.33099145     0.06400
C10         C  0.71292332  0.81548547  0.06443726     0.03500
C11         C  0.72825903  0.84111079  0.08292869    -0.12700
C12         C  0.75716459  0.86121855  0.06894296     0.01000
C13         C  0.77053358  0.85572555  0.03615655    -0.11200
C14         C  0.75588156  0.83005692  0.01753836     0.03400
C15         C  0.72705710  0.80991510  0.03170762    -0.10600
H16         H  0.71772310  0.84536656  0.10821868     0.09000
H17         H  0.79265256  0.87136119  0.02513512     0.06600
H18         H  0.71575851  0.78993755  0.01736476     0.06400
O19         O  0.93558418  0.82389538  0.79833103    -0.78200
C20         C  0.02059978  0.75477981  0.75953886     0.82900
O21         O  0.02233912  0.88351155  0.72519782    -0.79300
O22         O  0.01722732  0.79181231  0.65592131    -0.80800
O23         O  0.88001577  0.78606829  0.69235337    -0.80600
O24         O  0.88049544  0.82192633  0.76721129    -0.79200
Zn25       Zn  0.98151176  0.82020045  0.76537371     1.55700
O26         O  0.93268235  0.75699731  0.67710856    -0.80600
Cd27       Cd  0.90338521  0.82324568  0.71904981     1.59700
Cd28       Cd  0.98374694  0.85866610  0.69484225     1.59600
O29         O  0.88350029  0.86438261  0.69612893    -0.80600
O30         O  0.96268288  0.82075340  0.71942282    -1.91100
Cd31       Cd  0.98097116  0.78112422  0.69631943     1.59900
O32         O  0.93871533  0.88959115  0.68058033    -0.80500
O33         O  0.01167637  0.75120701  0.72867914    -0.79200
C34         C  0.03376627  0.87882917  0.75528611     0.83300
C35         C  0.89776898  0.82321142  0.79563337     0.83000
O36         O  0.01059331  0.77956722  0.77573733    -0.78100
C37         C  0.89541469  0.76236499  0.67748290     0.83800
O38         O  0.02065179  0.85566149  0.77269832    -0.78200
C39         C  0.90092098  0.88803157  0.68256146     0.83900
C40         C  0.02586151  0.81784440  0.64125013     0.84300
O41         O  0.01448052  0.84476959  0.65227320    -0.80700
C42         C  0.19836471  0.60506756  0.88893160     0.03500
C43         C  0.21524036  0.57937494  0.87137736    -0.12700
C44         C  0.24238547  0.55895099  0.88721042     0.01000
C45         C  0.25382406  0.56487242  0.92038405    -0.11200
C46         C  0.23779276  0.59060812  0.93807277     0.03400
C47         C  0.20952930  0.61031973  0.92255036    -0.10600
H48         H  0.20721267  0.57522883  0.84537278     0.09000
H49         H  0.27546699  0.54949411  0.93242841     0.06600
H50         H  0.19668282  0.62989038  0.93645213     0.06400
C51         C  0.71166443  0.61050835  0.56380705     0.03500
C52         C  0.69684703  0.58604174  0.58416516    -0.12700
C53         C  0.66879178  0.56470772  0.57134046     0.01000
C54         C  0.65590013  0.56782638  0.53798481    -0.11200
C55         C  0.67074814  0.59241738  0.51769330     0.03400
C56         C  0.69873230  0.61364470  0.53064631    -0.10600
H57         H  0.70629647  0.58415452  0.61010049     0.09000
H58         H  0.63360498  0.55171608  0.52813615     0.06600
H59         H  0.70964325  0.63307981  0.51522594     0.06400
O60         O  0.49590733  0.60034351  0.30128035    -0.78200
C61         C  0.40339775  0.66628753  0.26643137     0.82900
O62         O  0.41203624  0.53624227  0.23618613    -0.79300
O63         O  0.40087490  0.62682001  0.16370193    -0.80800
O64         O  0.54032041  0.64337743  0.19249411    -0.80600
O65         O  0.54822643  0.60740393  0.26768058    -0.79200
Zn66       Zn  0.44781822  0.60333088  0.27138042     1.55700
O67         O  0.48404704  0.66863547  0.17914428    -0.80600
Cd68       Cd  0.52216356  0.60520652  0.22102292     1.59700
Cd69       Cd  0.44380106  0.56351018  0.20250608     1.59600
O70         O  0.54444579  0.56518268  0.19863722    -0.80600
O71         O  0.46305591  0.60325056  0.22446042    -1.91100
Cd72       Cd  0.43968214  0.64092391  0.20110671     1.59900
O73         O  0.49090102  0.53695340  0.18402301    -0.80500
O74         O  0.40759400  0.66815762  0.23469161    -0.79200
C75         C  0.40040105  0.54177309  0.26603315     0.83300
C76         C  0.53319651  0.60352722  0.29671180     0.83000
O77         O  0.41886899  0.64364388  0.28315969    -0.78100
C78         C  0.52182771  0.66588206  0.17788315     0.83800
O79         O  0.41109897  0.56663571  0.28184715    -0.78200
C80         C  0.52848190  0.54093433  0.18526142     0.83100
C81         C  0.39086226  0.59976909  0.15212062     0.84300
O82         O  0.40486391  0.57390492  0.16387312    -0.80700
C83         C  0.19652008  0.32479761  0.37898141     0.03500
C84         C  0.20880686  0.31823479  0.41220718    -0.12700
C85         C  0.23776695  0.33747135  0.42773343     0.01000
C86         C  0.25372329  0.36332275  0.41008888    -0.11200
C87         C  0.24139852  0.36998160  0.37730240     0.03400
C88         C  0.21312725  0.35065222  0.36175302    -0.10600
H89         H  0.19651514  0.29812946  0.42555026     0.09000
H90         H  0.27636477  0.37804464  0.42172179     0.06600
H91         H  0.20460842  0.35540887  0.33593878     0.06400
C92         C  0.71977238  0.32486071  0.05843535     0.03500
C93         C  0.70680525  0.34981696  0.07883478    -0.12700
C94         C  0.67855754  0.37134994  0.06701512     0.01000
C95         C  0.66308769  0.36803422  0.03453917    -0.11200
C96         C  0.67553584  0.34294878  0.01396710     0.03400
C97         C  0.70418254  0.32141800  0.02589115    -0.10600
H98         H  0.71786473  0.35192627  0.10430996     0.09000
H99         H  0.64026806  0.38426275  0.02575126     0.06600
H100        H  0.71350002  0.30166901  0.01031029     0.06400
O101        O  0.40751373  0.28180879  0.77837813    -0.78200
C102        C  0.52041131  0.32608358  0.79844512     0.82900
O103        O  0.39753466  0.39019606  0.73531194    -0.79300
O104        O  0.53463005  0.36708909  0.69969177    -0.80800
O105        O  0.48300206  0.26111178  0.67826871    -0.80600
O106        O  0.40465021  0.25561751  0.73001503    -0.79200
Zn107      Zn  0.43621271  0.32287557  0.76914725     1.55700
O108        O  0.53655539  0.28837200  0.69471721    -0.80600
Cd109      Cd  0.43528879  0.28634143  0.69803132     1.59700
Cd110      Cd  0.43291313  0.36477719  0.70103755     1.59600
O111        O  0.39898743  0.29953817  0.65806049    -0.80600
O112        O  0.45422049  0.32508150  0.72280274    -1.91100
Cd113      Cd  0.51386497  0.32598379  0.72189630     1.59900
O114        O  0.39908996  0.35269969  0.65873521    -0.80500
O115        O  0.53734482  0.32480931  0.76987906    -0.79200
C116        C  0.38628042  0.38354473  0.76520399     0.83300
C117        C  0.39696121  0.25767977  0.76131017     0.83000
O118        O  0.48265124  0.32616433  0.80147278    -0.78100
C119        C  0.52057566  0.26521050  0.67919736     0.83800
O120        O  0.39802439  0.35826767  0.77969339    -0.78200
C121        C  0.38856189  0.32626642  0.64564819     0.83900
C122        C  0.51764694  0.39114689  0.68665951     0.84300
O123        O  0.47983996  0.39387144  0.68519695    -0.80700
C124        C  0.21910171  0.10071544  0.87923714     0.03500
C125        C  0.20031723  0.10412596  0.91069020    -0.12700
C126        C  0.16975244  0.08313816  0.92027326     0.01000
C127        C  0.15902760  0.05818602  0.89897066    -0.11200
C128        C  0.17802980  0.05433684  0.86802060     0.03400
C129        C  0.20748708  0.07578626  0.85799900    -0.10600
H130        H  0.20896578  0.12323046  0.92733728     0.09000
H131        H  0.13565707  0.04183080  0.90639524     0.06600
H132        H  0.22126359  0.07314237  0.83350416     0.06400
C133        C  0.71351279  0.11548450  0.56796317     0.03500
C134        C  0.72565653  0.08852794  0.58605687    -0.12700
C135        C  0.75377334  0.06758074  0.57248046     0.01000
C136        C  0.76923742  0.07342782  0.54032914    -0.11200
C137        C  0.75736347  0.10029032  0.52189925     0.03400
C138        C  0.72948373  0.12133822  0.53589554    -0.10600
H139        H  0.71365640  0.08411052  0.61090367     0.09000
H140        H  0.79110568  0.05733369  0.52985651     0.06600
H141        H  0.72044889  0.14231603  0.52199416     0.06400
O142        O  0.01200955  0.14630514  0.27148379    -0.78200
C143        C  0.89611886  0.11115242  0.29778197     0.82900
O144        O  0.00590575  0.03771722  0.23006068    -0.79300
O145        O  0.87220979  0.06998812  0.19821793    -0.80800
O146        O  0.93516137  0.16982097  0.17287076    -0.80600
O147        O  0.01325928  0.17259826  0.22306300    -0.79200
Zn148      Zn  0.97859244  0.10732125  0.26485556     1.55700
O149        O  0.87942997  0.14923250  0.19447231    -0.80600
Cd150      Cd  0.98020610  0.14257592  0.19251880     1.59700
Cd151      Cd  0.97398398  0.06595204  0.19725287     1.59600
O152        O  0.01269899  0.12669451  0.15137325    -0.80600
O153        O  0.95778270  0.10640406  0.21937194    -1.91100
Cd154      Cd  0.89819114  0.10947552  0.22074736     1.59900
O155        O  0.00846796  0.07402545  0.15481732    -0.80500
O156        O  0.87756279  0.11240029  0.26989619    -0.79200
C157        C  0.01970503  0.04299976  0.25931601     0.83300
C158        C  0.02246295  0.17028339  0.25403763     0.83000
O159        O  0.93389323  0.10877074  0.29921929    -0.78100
C160        C  0.89757622  0.16971378  0.17647002     0.83800
O161        O  0.01253955  0.06886209  0.27472591    -0.78200
C162        C  0.02025851  0.09910143  0.13979437     0.83900
C163        C  0.88713765  0.04560761  0.18404342     0.84300
O164        O  0.92448853  0.04106362  0.18189401    -0.80700
C165        C  0.77526708  0.10643533  0.48836393     0.01700
C166        C  0.81606426  0.11402805  0.48575971     0.04500
C167        C  0.83424733  0.11650081  0.45398698    -0.11600
C168        C  0.81159774  0.11217504  0.42455188     0.23800
C169        C  0.77042378  0.10618703  0.42707767    -0.12100
C170        C  0.75238667  0.10290206  0.45887917     0.05200
C171        C  0.83160683  0.11214022  0.39114452     0.27600
C172        C  0.84032816  0.14096578  0.37453723    -0.12800
C173        C  0.86123568  0.14072607  0.34381145     0.05700
C174        C  0.87317625  0.11166406  0.32945028    -0.08800
C175        C  0.86364085  0.08285864  0.34563578     0.06500
C176        C  0.84304361  0.08307437  0.37643566    -0.13200
Br177      Br  0.73905644  0.10186621  0.38679016    -0.05200
Br178      Br  0.84705078  0.12128027  0.52583894     0.00400
Br179      Br  0.87414822  0.18014575  0.32157827     0.00800
Br180      Br  0.83087384  0.04352678  0.39880936    -0.03600
Br181      Br  0.69686428  0.09170334  0.46194596     0.00900
Br182      Br  0.89055041  0.12489158  0.45067890    -0.02900
Br183      Br  0.82362738  0.18066998  0.39406424    -0.03700
Br184      Br  0.87875484  0.04306431  0.32535221     0.00200
C185        C  0.14841273  0.08683932  0.95250907     0.01700
C186        C  0.15984273  0.06848084  0.98048666     0.04500
C187        C  0.13740505  0.06962217  0.01029094    -0.11600
C188        C  0.10416707  0.08990891  0.01260019     0.23800
C189        C  0.09277716  0.10837930  0.98463719    -0.12100
C190        C  0.11450231  0.10645714  0.95445639     0.05200
C191        C  0.08213029  0.09249043  0.04485311     0.27600
C192        C  0.04902749  0.07291169  0.05127309    -0.12800
C193        C  0.02917709  0.07460631  0.08241833     0.05700
C194        C  0.04230748  0.09616197  0.10744938    -0.08800
C195        C  0.07564626  0.11575140  0.10071083     0.06500
C196        C  0.09516417  0.11404751  0.06946383    -0.13200
Br197      Br  0.04728423  0.13611314  0.98781173    -0.05200
Br198      Br  0.20628231  0.04170801  0.97775117     0.00400
Br199      Br  0.98294690  0.04811319  0.08954383     0.00800
Br200      Br  0.13990613  0.14143352  0.05994707    -0.03600
Br201      Br  0.09717408  0.12985882  0.91542570     0.00900
Br202      Br  0.15163758  0.04298887  0.04787890    -0.02900
Br203      Br  0.03063011  0.04415838  0.01687458    -0.03700
Br204      Br  0.09653996  0.14382018  0.13466517     0.00200
C205        C  0.68441347  0.13770405  0.58305365     0.01700
C206        C  0.64426794  0.13705432  0.57282421     0.04500
C207        C  0.61646053  0.15769860  0.58773214    -0.11600
C208        C  0.62852371  0.17853929  0.61345623     0.23800
C209        C  0.66853819  0.17896480  0.62393332    -0.12100
C210        C  0.69650231  0.15887803  0.60850522     0.05200
C211        C  0.59936781  0.20030318  0.62938843     0.27600
C212        C  0.59618048  0.23196118  0.61811545    -0.12800
C213        C  0.56986573  0.25304732  0.63411495     0.05700
C214        C  0.54669258  0.24258401  0.66151411    -0.08800
C215        C  0.54959166  0.21083522  0.67260759     0.06500
C216        C  0.57594213  0.18973313  0.65658325    -0.13200
Br217      Br  0.68480979  0.20706088  0.65965204    -0.05200
Br218      Br  0.62720590  0.10718367  0.53910869     0.00400
Br219      Br  0.56490320  0.29614670  0.61802361     0.00800
Br220      Br  0.58101452  0.14657627  0.67242461    -0.03600
Br221      Br  0.75155945  0.16098226  0.62174826     0.00900
Br222      Br  0.56180037  0.15756246  0.57304024    -0.02900
Br223      Br  0.62848791  0.24646089  0.58105859    -0.03700
Br224      Br  0.51903028  0.19676743  0.71088516     0.00200
C225        C  0.37519326  0.23162605  0.77866647     0.01700
C226        C  0.34039879  0.21837589  0.76445750     0.04500
C227        C  0.31876809  0.19501917  0.78207290    -0.11600
C228        C  0.33013873  0.18620674  0.81486400     0.23800
C229        C  0.36503812  0.19901371  0.82897229    -0.12100
C230        C  0.38816164  0.22087223  0.81055000     0.05200
C231        C  0.30392077  0.16493154  0.83494934     0.27600
C232        C  0.26777096  0.17676556  0.84777750    -0.12800
C233        C  0.23997066  0.15594355  0.86245922     0.05700
C234        C  0.24973985  0.12361325  0.86731793    -0.08800
C235        C  0.28766248  0.11252526  0.85740910     0.06500
C236        C  0.31384939  0.13272750  0.83984426    -0.13200
Br237      Br  0.38037294  0.18741683  0.87406715    -0.05200
Br238      Br  0.31991887  0.23380355  0.72224546     0.00400
Br239      Br  0.18735977  0.17146855  0.87274376     0.00800
Br240      Br  0.36226399  0.11590586  0.82088957    -0.03600
Br241      Br  0.43845263  0.23496413  0.82875475     0.00900
Br242      Br  0.27291583  0.17527224  0.76156939    -0.02900
Br243      Br  0.25604320  0.22157702  0.84441376    -0.03700
Br244      Br  0.30413985  0.06980453  0.86842520     0.00200
C245        C  0.65606671  0.33820553  0.98105609     0.01700
C246        C  0.62200227  0.31877982  0.97878677     0.04500
C247        C  0.60090211  0.31670464  0.94837378    -0.11600
C248        C  0.61453541  0.33320818  0.91976010     0.23800
C249        C  0.64927738  0.35193701  0.92177052    -0.12100
C250        C  0.66961912  0.35484987  0.95253373     0.05200
C251        C  0.59144742  0.33170911  0.88797670     0.27600
C252        C  0.59462142  0.30501172  0.86680050    -0.12800
C253        C  0.57106369  0.30293476  0.83762829     0.05700
C254        C  0.54525920  0.32804965  0.82895116    -0.08800
C255        C  0.54330771  0.35526976  0.84945239     0.06500
C256        C  0.56557338  0.35676147  0.87931043    -0.13200
Br257      Br  0.66851647  0.37392044  0.88243274    -0.05200
Br258      Br  0.60357653  0.29568898  0.01766267     0.00400
Br259      Br  0.57294870  0.26516835  0.81027976     0.00800
Br260      Br  0.56019118  0.39291410  0.90870986    -0.03600
Br261      Br  0.71546815  0.38221755  0.95599772     0.00900
Br262      Br  0.55231331  0.29232489  0.94618572    -0.02900
Br263      Br  0.63128336  0.27135047  0.87791788    -0.03700
Br264      Br  0.51200040  0.39136586  0.83557834     0.00200
C265        C  0.74794872  0.30162396  0.07266038     0.01700
C266        C  0.78723494  0.31109949  0.08001326     0.04500
C267        C  0.81263063  0.29053062  0.09769986    -0.11600
C268        C  0.79907369  0.26020424  0.10733713     0.23800
C269        C  0.76011267  0.25045911  0.09947668    -0.12100
C270        C  0.73439144  0.27127572  0.08248179     0.05200
C271        C  0.82599924  0.23815186  0.12511652     0.27600
C272        C  0.84807195  0.21580667  0.10662110    -0.12800
C273        C  0.87205930  0.19360026  0.12345584     0.05700
C274        C  0.87419147  0.19396384  0.15879725    -0.08800
C275        C  0.85344056  0.21717204  0.17720645     0.06500
C276        C  0.82881390  0.23897817  0.16040080    -0.13200
Br277      Br  0.74194356  0.20873156  0.11269066    -0.05200
Br278      Br  0.80624535  0.35224615  0.06569208     0.00400
Br279      Br  0.90087520  0.16201421  0.09816127     0.00800
Br280      Br  0.79826971  0.26953082  0.18558790    -0.03600
Br281      Br  0.67999719  0.25880525  0.07451232     0.00900
Br282      Br  0.86575679  0.30393286  0.10932982    -0.02900
Br283      Br  0.84457380  0.21535935  0.05824054    -0.03700
Br284      Br  0.86027590  0.21987259  0.22523343     0.00200
C285        C  0.25288763  0.33082405  0.46208799     0.01700
C286        C  0.24389233  0.35200859  0.48842916     0.04500
C287        C  0.26414844  0.34974071  0.51930317    -0.11600
C288        C  0.29286487  0.32581440  0.52432361     0.23800
C289        C  0.30011676  0.30342932  0.49878414    -0.12100
C290        C  0.28073181  0.30625154  0.46754822     0.05200
C291        C  0.31737641  0.32559887  0.55546690     0.27600
C292        C  0.35486760  0.34063674  0.55562738    -0.12800
C293        C  0.37821329  0.34069720  0.58501656     0.05700
C294        C  0.36380331  0.32645151  0.61475718    -0.08800
C295        C  0.32613231  0.31158720  0.61455823     0.06500
C296        C  0.30321568  0.31084271  0.58491312    -0.13200
Br297      Br  0.33790046  0.26966368  0.50633929    -0.05200
Br298      Br  0.20456088  0.38479224  0.48173410     0.00400
Br299      Br  0.43082928  0.35883487  0.58387349     0.00800
Br300      Br  0.25236689  0.28959705  0.58441110    -0.03600
Br301      Br  0.29511398  0.27810682  0.43150177     0.00900
Br302      Br  0.25408018  0.38033719  0.55426802    -0.02900
Br303      Br  0.37407599  0.36125419  0.51539687    -0.03700
Br304      Br  0.30500286  0.29350621  0.65529752     0.00200
C305        C  0.16822387  0.30373054  0.36104652     0.01700
C306        C  0.17961890  0.27246552  0.35271859     0.04500
C307        C  0.15348195  0.25265085  0.33492523    -0.11600
C308        C  0.11664121  0.26445303  0.32367869     0.23800
C309        C  0.10571740  0.29606149  0.33066413    -0.12100
C310        C  0.13117939  0.31556278  0.34974617     0.05200
C311        C  0.08967253  0.24320887  0.30463744     0.27600
C312        C  0.09741183  0.23659326  0.27063016    -0.12800
C313        C  0.07602999  0.21252416  0.25400126     0.05700
C314        C  0.04488118  0.19628894  0.27080137    -0.08800
C315        C  0.03537090  0.20486011  0.30430946     0.06500
C316        C  0.05851752  0.22749273  0.32136828    -0.13200
Br317      Br  0.05622812  0.31260786  0.31342558    -0.05200
Br318      Br  0.23234902  0.25739089  0.36286062     0.00400
Br319      Br  0.09235978  0.20046344  0.20934698     0.00800
Br320      Br  0.04855002  0.23630367  0.36821689    -0.03600
Br321      Br  0.11515719  0.35843524  0.36032569     0.00900
Br322      Br  0.16825028  0.20918761  0.32559382    -0.02900
Br323      Br  0.13827596  0.26019148  0.24729017    -0.03700
Br324      Br  0.98976287  0.18692444  0.32717457     0.00200
C325        C  0.26032640  0.39603357  0.35854751     0.01700
C326        C  0.29461373  0.38982353  0.33940527     0.04500
C327        C  0.31467007  0.41492014  0.32349136    -0.11600
C328        C  0.30052980  0.44625792  0.32686435     0.23800
C329        C  0.26545956  0.45235451  0.34511868    -0.12100
C330        C  0.24524347  0.42715502  0.36089117     0.05200
C331        C  0.32386736  0.47272885  0.31240619     0.27600
C332        C  0.35681911  0.48466652  0.33014825    -0.12800
C333        C  0.38176050  0.50744714  0.31517672     0.05700
C334        C  0.37341790  0.51876698  0.28250266    -0.08800
C335        C  0.33931556  0.50763637  0.26533909     0.06500
C336        C  0.31481199  0.48445375  0.28021277    -0.13200
Br337      Br  0.24586593  0.49524722  0.34905638    -0.05200
Br338      Br  0.31444879  0.34693956  0.33567461     0.00400
Br339      Br  0.42863640  0.52126933  0.33890791     0.00800
Br340      Br  0.26918030  0.46813682  0.25639693    -0.03600
Br341      Br  0.19721618  0.43508079  0.38600701     0.00900
Br342      Br  0.36207762  0.40659826  0.29762363    -0.02900
Br343      Br  0.36819441  0.46896555  0.37475523    -0.03700
Br344      Br  0.32502561  0.52478213  0.22193060     0.00200
C345        C  0.66188781  0.39520349  0.08996864     0.01700
C346        C  0.68264589  0.42358231  0.09667989     0.04500
C347        C  0.66444301  0.44745352  0.11593417    -0.11600
C348        C  0.62584167  0.44263857  0.12868189     0.23800
C349        C  0.60671546  0.41314110  0.12452436    -0.12100
C350        C  0.62470571  0.38943913  0.10506556     0.05200
C351        C  0.60352626  0.46939531  0.14335585     0.27600
C352        C  0.60323996  0.47428388  0.17829083    -0.12800
C353        C  0.57845579  0.49774683  0.19211344     0.05700
C354        C  0.55468625  0.51667072  0.17085858    -0.08800
C355        C  0.55699876  0.51309010  0.13580323     0.06500
C356        C  0.58102055  0.48918567  0.12204858    -0.13200
Br357      Br  0.55546339  0.40560804  0.14486778    -0.05200
Br358      Br  0.73541750  0.42994425  0.07893603     0.00400
Br359      Br  0.57631984  0.50351989  0.24013759     0.00800
Br360      Br  0.58328520  0.48346663  0.07397857    -0.03600
Br361      Br  0.59858695  0.34897220  0.09908126     0.00900
Br362      Br  0.69154059  0.48707733  0.12421238    -0.02900
Br363      Br  0.63699430  0.44894183  0.20687088    -0.03700
Br364      Br  0.52897525  0.54200720  0.10665165     0.00200
C365        C  0.65075992  0.54047264  0.59343026     0.01700
C366        C  0.67146691  0.51227311  0.60103893     0.04500
C367        C  0.65281997  0.48832989  0.62012552    -0.11600
C368        C  0.61309500  0.49223618  0.63072663     0.23800
C369        C  0.59304439  0.52098643  0.62421988    -0.12100
C370        C  0.61215584  0.54529015  0.60616944     0.05200
C371        C  0.59096995  0.46522020  0.64572818     0.27600
C372        C  0.57484462  0.44175622  0.62450743    -0.12800
C373        C  0.55118745  0.41733148  0.63802576     0.05700
C374        C  0.54293591  0.41657145  0.67267862    -0.08800
C375        C  0.56015442  0.43938685  0.69409038     0.06500
C376        C  0.58424587  0.46368666  0.68063536    -0.13200
Br377      Br  0.53867067  0.52647153  0.63865217    -0.05200
Br378      Br  0.72461171  0.50598478  0.58403745     0.00400
Br379      Br  0.53105863  0.38435315  0.60921220     0.00800
Br380      Br  0.60803219  0.49492267  0.70977801    -0.03600
Br381      Br  0.58556116  0.58532626  0.59907038     0.00900
Br382      Br  0.68097654  0.44971855  0.63087676    -0.02900
Br383      Br  0.58481890  0.44340598  0.57675612    -0.03700
Br384      Br  0.55053424  0.43726696  0.74179308     0.00200
C385        C  0.65508302  0.59735492  0.48359464     0.01700
C386        C  0.67782952  0.58842872  0.45544070     0.04500
C387        C  0.66195029  0.59203518  0.42301954    -0.11600
C388        C  0.62348363  0.60463810  0.41888877     0.23800
C389        C  0.60181546  0.61538926  0.44687953    -0.12100
C390        C  0.61753408  0.61161380  0.47925242     0.05200
C391        C  0.60392001  0.60358020  0.38576471     0.27600
C392        C  0.60421522  0.63036193  0.36453939    -0.12800
C393        C  0.58190510  0.63008543  0.33468603     0.05700
C394        C  0.55957251  0.60291731  0.32609666    -0.08800
C395        C  0.56115198  0.57555214  0.34647082     0.06500
C396        C  0.58294959  0.57599740  0.37648326    -0.13200
Br397      Br  0.55028864  0.63478650  0.44073707    -0.05200
Br398      Br  0.73010366  0.57041583  0.46142761     0.00400
Br399      Br  0.58030425  0.66744527  0.30652100     0.00800
Br400      Br  0.58327730  0.53915058  0.40551287    -0.03600
Br401      Br  0.58768535  0.62613973  0.51759887     0.00900
Br402      Br  0.69220888  0.57919831  0.38421640    -0.02900
Br403      Br  0.63419698  0.66757541  0.37706268    -0.03700
Br404      Br  0.53473270  0.53707011  0.33265529     0.00200
C405        C  0.25974430  0.53165344  0.86896536     0.01700
C406        C  0.23984541  0.50214277  0.86842437     0.04500
C407        C  0.25705916  0.47594439  0.85185668    -0.11600
C408        C  0.29419207  0.47923776  0.83572186     0.23800
C409        C  0.31421738  0.50869805  0.83665510    -0.12100
C410        C  0.29709222  0.53479072  0.85329811     0.05200
C411        C  0.31336841  0.45172256  0.81871398     0.27600
C412        C  0.34092635  0.43294365  0.83633944    -0.12800
C413        C  0.36426422  0.41035350  0.81921782     0.05700
C414        C  0.35960505  0.40584827  0.78401008    -0.08800
C415        C  0.32927353  0.42300387  0.76710348     0.06500
C416        C  0.30662796  0.44601281  0.78437848    -0.13200
Br417      Br  0.36564651  0.51302718  0.81560368    -0.05200
Br418      Br  0.18961879  0.49751657  0.89134349     0.00400
Br419      Br  0.40371930  0.38734529  0.84481860     0.00800
Br420      Br  0.26621804  0.47007941  0.76117225    -0.03600
Br421      Br  0.32502978  0.57481842  0.85523112     0.00900
Br422      Br  0.23047565  0.43534444  0.85192734    -0.02900
Br423      Br  0.34690426  0.43887721  0.88419972    -0.03700
Br424      Br  0.31672795  0.41420902  0.72071224     0.00200
C425        C  0.25154046  0.59667695  0.97275526     0.01700
C426        C  0.28020163  0.62044427  0.97900007     0.04500
C427        C  0.29749188  0.62311991  0.01100580    -0.11600
C428        C  0.28769937  0.60105851  0.03632354     0.23800
C429        C  0.25802151  0.57807267  0.03055082    -0.12100
C430        C  0.23946864  0.57625175  0.99894947     0.05200
C431        C  0.31251590  0.59937835  0.06700369     0.27600
C432        C  0.34882182  0.58274874  0.06582763    -0.12800
C433        C  0.37388289  0.58215673  0.09400960     0.05700
C434        C  0.36293141  0.59845462  0.12352071    -0.08800
C435        C  0.32599480  0.61441714  0.12498650     0.06500
C436        C  0.30088719  0.61495171  0.09666752    -0.13200
Br437      Br  0.24478337  0.54786942  0.06528820    -0.05200
Br438      Br  0.29888685  0.64727017  0.94306023     0.00400
Br439      Br  0.42420533  0.56034062  0.09117195     0.00800
Br440      Br  0.25096118  0.63744683  0.09803301    -0.03600
Br441      Br  0.19856429  0.54499525  0.99097289     0.00900
Br442      Br  0.33653899  0.65572952  0.01983508    -0.02900
Br443      Br  0.36475331  0.56155183  0.02497778    -0.03700
Br444      Br  0.30900148  0.63450003  0.16609655     0.00200
C445        C  0.73873842  0.63422019  0.57797235     0.01700
C446        C  0.78007805  0.62939568  0.57643081     0.04500
C447        C  0.80580476  0.65152528  0.59129619    -0.11600
C448        C  0.78999933  0.67820944  0.60786729     0.23800
C449        C  0.74867718  0.68352322  0.60846970    -0.12100
C450        C  0.72299958  0.66156084  0.59330504     0.05200
C451        C  0.81681873  0.70004634  0.62573073     0.27600
C452        C  0.82587040  0.69435843  0.65974714    -0.12800
C453        C  0.85210585  0.71468291  0.67670094     0.05700
C454        C  0.86898760  0.74066287  0.65963148    -0.08800
C455        C  0.85967004  0.74655399  0.62573379     0.06500
C456        C  0.83350788  0.72619324  0.60872454    -0.13200
Br457      Br  0.72747103  0.72062193  0.63049359    -0.05200
Br458      Br  0.80115248  0.59236833  0.55419152     0.00400
Br459      Br  0.86501576  0.70712257  0.72323479     0.00800
Br460      Br  0.82017913  0.73404956  0.56232143    -0.03600
Br461      Br  0.66627622  0.66868154  0.59356611     0.00900
Br462      Br  0.86261311  0.64530702  0.58936495    -0.02900
Br463      Br  0.80200796  0.65886361  0.68300599    -0.03700
Br464      Br  0.88266340  0.78259732  0.60282187     0.00200
C465        C  0.16953046  0.62654040  0.87175986     0.01700
C466        C  0.17798601  0.65929249  0.86792588     0.04500
C467        C  0.15132712  0.67921006  0.85059462    -0.11600
C468        C  0.11725482  0.66632346  0.83515314     0.23800
C469        C  0.10885414  0.63367387  0.83861368    -0.12100
C470        C  0.13409320  0.61408989  0.85785139     0.05200
C471        C  0.09094763  0.68711895  0.81464965     0.27600
C472        C  0.05417824  0.69757413  0.82756840    -0.12800
C473        C  0.03012341  0.71826462  0.80858968     0.05700
C474        C  0.04358770  0.72989559  0.77729481    -0.08800
C475        C  0.08028855  0.71921365  0.76427874     0.06500
C476        C  0.10345993  0.69737972  0.78260418    -0.13200
Br477      Br  0.06343809  0.61561474  0.81594037    -0.05200
Br478      Br  0.22720065  0.67701950  0.88418511     0.00400
Br479      Br  0.97804675  0.72981763  0.82507255     0.00800
Br480      Br  0.15299603  0.68199227  0.76421039    -0.03600
Br481      Br  0.11898145  0.57051052  0.86619138     0.00900
Br482      Br  0.16173918  0.72429991  0.84743542    -0.02900
Br483      Br  0.03746478  0.68450306  0.87186154    -0.03700
Br484      Br  0.10059900  0.73615990  0.72261570     0.00200
C485        C  0.87628853  0.91416156  0.66849348     0.01700
C486        C  0.88500851  0.92716217  0.63652349     0.04500
C487        C  0.86101755  0.95144727  0.62309889    -0.11600
C488        C  0.82701158  0.96182735  0.64059555     0.23800
C489        C  0.81752582  0.94834117  0.67195626    -0.12100
C490        C  0.84295236  0.92558190  0.68652317     0.05200
C491        C  0.80305773  0.98839208  0.62663937     0.27600
C492        C  0.81039519  0.01964201  0.63761819    -0.12800
C493        C  0.79381793  0.04552250  0.62019021     0.05700
C494        C  0.76860638  0.04025668  0.59241758    -0.08800
C495        C  0.75908501  0.00888023  0.58290075     0.06500
C496        C  0.77631456  0.98298230  0.59999652    -0.13200
Br497      Br  0.76942688  0.96099028  0.69470013    -0.05200
Br498      Br  0.92869311  0.91123648  0.61000902     0.00400
Br499      Br  0.80854578  0.08812575  0.63280115     0.00800
Br500      Br  0.76402542  0.94002530  0.58675343    -0.03600
Br501      Br  0.83376589  0.91241571  0.73238984     0.00900
Br502      Br  0.87486871  0.97088146  0.58064088    -0.02900
Br503      Br  0.84424991  0.02697832  0.67600562    -0.03700
Br504      Br  0.72286031  0.00143879  0.54617632     0.00200
C505        C  0.06231064  0.90136624  0.77058861     0.01700
C506        C  0.05605017  0.91249120  0.80368807     0.04500
C507        C  0.08102676  0.93599898  0.81708885    -0.11600
C508        C  0.11215927  0.94867531  0.79761541     0.23800
C509        C  0.11984208  0.93667330  0.76536831    -0.12100
C510        C  0.09509304  0.91295704  0.75182062     0.05200
C511        C  0.13444314  0.97633270  0.81054785     0.27600
C512        C  0.11954819  0.00711847  0.80461276    -0.12800
C513        C  0.13506555  0.03302497  0.82247982     0.05700
C514        C  0.16585776  0.02816969  0.84585249    -0.08800
C515        C  0.18281043  0.99780103  0.84989116     0.06500
C516        C  0.16707861  0.97181542  0.83218055    -0.13200
Br517      Br  0.16392598  0.95336953  0.73979051    -0.05200
Br518      Br  0.01176106  0.89771488  0.83043727     0.00400
Br519      Br  0.11273866  0.07487998  0.81647479     0.00800
Br520      Br  0.18878905  0.92982833  0.83848744    -0.03600
Br521      Br  0.10724969  0.89598519  0.70794799     0.00900
Br522      Br  0.07176026  0.95197851  0.86190558    -0.02900
Br523      Br  0.07657805  0.01339158  0.77316419    -0.03700
Br524      Br  0.22633012  0.99174176  0.88078973     0.00200
C525        C  0.86080753  0.02156847  0.16913922     0.01700
C526        C  0.85451959  0.02154481  0.13419453     0.04500
C527        C  0.83607763  0.99535401  0.11881367    -0.11600
C528        C  0.82225465  0.96982122  0.13859298     0.23800
C529        C  0.82614528  0.97087562  0.17380831    -0.12100
C530        C  0.84600438  0.99652350  0.18903539     0.05200
C531        C  0.80509545  0.94135928  0.12218315     0.27600
C532        C  0.76425486  0.94022485  0.11450089    -0.12800
C533        C  0.74843738  0.91389447  0.09735009     0.05700
C534        C  0.77336628  0.88828549  0.08839048    -0.08800
C535        C  0.81410976  0.88907388  0.09704734     0.06500
C536        C  0.82997845  0.91572248  0.11358380    -0.13200
Br537      Br  0.80534687  0.93663914  0.20088183    -0.05200
Br538      Br  0.87136352  0.05746088  0.10756302     0.00400
Br539      Br  0.69299581  0.91378867  0.08470801     0.00800
Br540      Br  0.88599257  0.91749735  0.12414426    -0.03600
Br541      Br  0.85453561  0.99683210  0.23691339     0.00900
Br542      Br  0.83144311  0.99362784  0.07056417    -0.02900
Br543      Br  0.73025645  0.97508974  0.12719499    -0.03700
Br544      Br  0.84813489  0.85336034  0.08711720     0.00200
C545        C  0.77176316  0.82462468  0.98338646     0.01700
C546        C  0.75327198  0.83889130  0.95541393     0.04500
C547        C  0.77146108  0.83746474  0.92358309    -0.11600
C548        C  0.80873075  0.82253044  0.91985202     0.23800
C549        C  0.82672046  0.80759041  0.94769169    -0.12100
C550        C  0.80797178  0.80824762  0.97928143     0.05200
C551        C  0.82973738  0.82335783  0.88701053     0.27600
C552        C  0.82764608  0.79713163  0.86513766    -0.12800
C553        C  0.84967677  0.79714235  0.83504594     0.05700
C554        C  0.87326991  0.82367270  0.82642029    -0.08800
C555        C  0.87388765  0.85046281  0.84756590     0.06500
C556        C  0.85276394  0.85009937  0.87808272    -0.13200
Br557      Br  0.87784407  0.78732175  0.94271256    -0.05200
Br558      Br  0.70383318  0.86144998  0.96113459     0.00400
Br559      Br  0.84875967  0.76029446  0.80631437     0.00800
Br560      Br  0.85595619  0.88596824  0.90806148    -0.03600
Br561      Br  0.83213632  0.78723852  0.01722259     0.00900
Br562      Br  0.74591166  0.85649067  0.88513836    -0.02900
Br563      Br  0.79488164  0.76110908  0.87678695    -0.03700
Br564      Br  0.90203156  0.88825435  0.83382964     0.00200
C565        C  0.68249492  0.79439313  0.07980254     0.01700
C566        C  0.69248035  0.77527251  0.10774216     0.04500
C567        C  0.66366581  0.75540577  0.12248247    -0.11600
C568        C  0.62469502  0.75457016  0.10953110     0.23800
C569        C  0.61446366  0.77383448  0.08189712    -0.12100
C570        C  0.64323770  0.79384284  0.06713765     0.05200
C571        C  0.59496826  0.73285254  0.12488072     0.27600
C572        C  0.59167821  0.70135842  0.11327970    -0.12800
C573        C  0.56698351  0.67958998  0.13022219     0.05700
C574        C  0.54532851  0.68932126  0.15874002    -0.08800
C575        C  0.54798485  0.72099132  0.16990847     0.06500
C576        C  0.57251160  0.74280549  0.15282914    -0.13200
Br577      Br  0.56097672  0.77260823  0.06441938    -0.05200
Br578      Br  0.74591558  0.77560910  0.12552285     0.00400
Br579      Br  0.56307336  0.63632240  0.11452715     0.00800
Br580      Br  0.57650054  0.78609647  0.16826529    -0.03600
Br581      Br  0.62833935  0.82148773  0.03053598     0.00900
Br582      Br  0.67753109  0.72883966  0.16030600    -0.02900
Br583      Br  0.62196725  0.68798724  0.07466078    -0.03700
Br584      Br  0.52075739  0.73373992  0.21027685     0.00200
C585        C  0.14616089  0.88868817  0.35152297     0.01700
C586        C  0.11072289  0.88438254  0.33324758     0.04500
C587        C  0.09261755  0.91047111  0.31735905    -0.11600
C588        C  0.10960905  0.94097502  0.32018150     0.23800
C589        C  0.14532098  0.94520560  0.33814602    -0.12100
C590        C  0.16367827  0.91901902  0.35371734     0.05200
C591        C  0.08883995  0.96868010  0.30534858     0.27600
C592        C  0.09616099  0.97750518  0.27183940    -0.12800
C593        C  0.07435548  0.00239176  0.25705437     0.05700
C594        C  0.04459009  0.01833299  0.27569768    -0.08800
C595        C  0.03824960  0.00997605  0.30975585     0.06500
C596        C  0.06051546  0.98530630  0.32448214    -0.13200
Br597      Br  0.16836635  0.98700923  0.34200506    -0.05200
Br598      Br  0.08664040  0.84281408  0.33069698     0.00400
Br599      Br  0.08690126  0.01527072  0.21164648     0.00800
Br600      Br  0.05183535  0.97356442  0.37083391    -0.03600
Br601      Br  0.21211252  0.92468035  0.37899246     0.00900
Br602      Br  0.04411022  0.90468435  0.29219450    -0.02900
Br603      Br  0.13599729  0.95510295  0.24625500    -0.03700
Br604      Br  0.99759332  0.03063190  0.33616378     0.00200
C605        C  0.15120782  0.82210521  0.45422810     0.01700
C606        C  0.16106300  0.84348509  0.48009609     0.04500
C607        C  0.14248506  0.84089263  0.51156818    -0.11600
C608        C  0.11536006  0.81598442  0.51770751     0.23800
C609        C  0.10803024  0.79305767  0.49268396    -0.12100
C610        C  0.12514839  0.79657014  0.46065579     0.05200
C611        C  0.09230482  0.81535529  0.54942174     0.27600
C612        C  0.11013408  0.80499279  0.57954069    -0.12800
C613        C  0.08859085  0.80616274  0.60981344     0.05700
C614        C  0.04882365  0.81673162  0.60980645    -0.08800
C615        C  0.03060205  0.82598581  0.57949427     0.06500
C616        C  0.05246734  0.82583879  0.54945037    -0.13200
Br617      Br  0.07358554  0.75744734  0.50219211    -0.05200
Br618      Br  0.19976248  0.87658032  0.47209165     0.00400
Br619      Br  0.11400118  0.79454947  0.65143670     0.00800
Br620      Br  0.02787127  0.84025679  0.50831491    -0.03600
Br621      Br  0.11081502  0.76776977  0.42503152     0.00900
Br622      Br  0.15271726  0.87238689  0.54566409    -0.02900
Br623      Br  0.16393854  0.78906830  0.57912986    -0.03700
Br624      Br  0.97505588  0.83741475  0.57886729     0.00200
C625        C  0.37909611  0.69057011  0.28414980     0.01700
C626        C  0.37989884  0.72278847  0.27361600     0.04500
C627        C  0.35438668  0.74515635  0.28857431    -0.11600
C628        C  0.32874080  0.73581968  0.31465661     0.23800
C629        C  0.32902985  0.70428488  0.32635263    -0.12100
C630        C  0.35361231  0.68154762  0.31096306     0.05200
C631        C  0.29937519  0.75848818  0.32847071     0.27600
C632        C  0.30937444  0.77796445  0.35591351    -0.12800
C633        C  0.28032261  0.79766407  0.37046110     0.05700
C634        C  0.24122311  0.79781235  0.35756721    -0.08800
C635        C  0.23147632  0.77861843  0.32976342     0.06500
C636        C  0.26057364  0.75910901  0.31516832    -0.13200
Br637      Br  0.29438148  0.69224708  0.36298574    -0.05200
Br638      Br  0.41645895  0.73720637  0.23942032     0.00400
Br639      Br  0.29418676  0.82466688  0.40778642     0.00800
Br640      Br  0.24721657  0.73251429  0.27735686    -0.03600
Br641      Br  0.34914693  0.63779481  0.32552805     0.00900
Br642      Br  0.35363727  0.78862578  0.27294720    -0.02900
Br643      Br  0.36271852  0.77710581  0.37373069    -0.03700
Br644      Br  0.17774251  0.77776631  0.31264933     0.00200
loop_ 
_geom_bond_atom_site_label_1 
_geom_bond_atom_site_label_2 
_geom_bond_distance 
_geom_bond_site_symmetry_2 
_ccdc_geom_bond_type 
C1            C2   1.405       .  A
C1            C6   1.403       .  A
C1          C634   1.477       .  S
C2            C3   1.402       .  A
C2            H7   1.081       .  S
C3            C4   1.400       .  A
C3          C605   1.475       .  S
C4            C5   1.398       .  A
C4            H8   1.085       .  S
C5            C6   1.400       .  A
C5          C585   1.473       .  S
C6            H9   1.086       .  S
C10          C11   1.405       .  A
C10          C15   1.407       .  A
C10         C565   1.485       .  S
C11          C12   1.402       .  A
C11          H16   1.083       .  S
C12          C13   1.401       .  A
C12         C534   1.482       .  S
C13          C14   1.401       .  A
C13          H17   1.085       .  S
C14          C15   1.404       .  A
C14         C545   1.479   1_554  S
C15          H18   1.086       .  S
O19          C35   1.276       .  A
O19         Zn25   2.032       .  S
C20         C474   1.480       .  S
C20          O36   1.273       .  A
C20          O33   1.274       .  A
O21          C34   1.273       .  A
O21         Cd28   2.059   1_455  S
O22          C40   1.274       .  A
O22         Cd31   2.067   1_455  S
O23          C37   1.272       .  A
O23         Cd27   2.050       .  S
O24          C35   1.273       .  A
O24         Cd27   2.067       .  S
Zn25         O36   2.012   1_655  S
Zn25         O38   2.010   1_655  S
Zn25         O30   1.936       .  S
O26          C37   1.273       .  A
O26         Cd31   2.062       .  S
Cd27         O29   2.067       .  S
Cd27         O30   1.996       .  S
Cd28         O32   2.075       .  S
Cd28         O41   2.071   1_655  S
Cd28         O30   1.999       .  S
O29          C39   1.274       .  A
O30         Cd31   2.003       .  S
Cd31         O33   2.075   1_655  S
O32          C39   1.275       .  A
C34         C505   1.481       .  S
C34          O38   1.274       .  A
C35         C554   1.477       .  S
C37         C454   1.460       .  S
C39         C485   1.486       .  S
C40         C614   1.472       .  S
C40          O41   1.275       .  A
C42          C43   1.408       .  A
C42          C47   1.408       .  A
C42         C465   1.491       .  S
C43          C44   1.403       .  A
C43          H48   1.085       .  S
C44          C45   1.399       .  A
C44         C405   1.481       .  S
C45          C46   1.401       .  A
C45          H49   1.085       .  S
C46          C47   1.404       .  A
C46         C425   1.479       .  S
C47          H50   1.083       .  S
C51          C52   1.400       .  A
C51          C56   1.396       .  A
C51         C445   1.464       .  S
C52          C53   1.399       .  A
C52          H57   1.083       .  S
C53          C54   1.403       .  A
C53         C365   1.475       .  S
C54          C55   1.403       .  A
C54          H58   1.084       .  S
C55          C56   1.396       .  A
C55         C385   1.471       .  S
C56          H59   1.085       .  S
O60          C76   1.274       .  A
O60         Zn66   2.012       .  S
C61         C625   1.488       .  S
C61          O77   1.273       .  A
C61          O74   1.274       .  A
O62          C75   1.273       .  A
O62         Cd69   2.061       .  S
O63          C81   1.274       .  A
O63         Cd72   2.068       .  S
O64          C78   1.273       .  A
O64         Cd68   2.058       .  S
O65          C76   1.272       .  A
O65         Cd68   2.057       .  S
Zn66         O77   2.013       .  S
Zn66         O79   2.019       .  S
Zn66         O71   1.937       .  S
O67          C78   1.276       .  A
O67         Cd72   2.084       .  S
Cd68         O70   2.050       .  S
Cd68         O71   1.993       .  S
Cd69         O73   2.074       .  S
Cd69         O82   2.066       .  S
Cd69         O71   1.996       .  S
O70          C80   1.271       .  A
O71         Cd72   1.998       .  S
Cd72         O74   2.067       .  S
O73          C80   1.275       .  A
C75         C334   1.478       .  S
C75          O79   1.274       .  A
C76         C394   1.468       .  S
C78         C574   1.474       .  S
C80         C354   1.467       .  S
C81         C434   1.477       .  S
C81          O82   1.274       .  A
C83          C84   1.413       .  A
C83          C88   1.401       .  A
C83         C305   1.484       .  S
C84          C85   1.409       .  A
C84          H89   1.080       .  S
C85          C86   1.400       .  A
C85         C285   1.486       .  S
C86          C87   1.398       .  A
C86          H90   1.086       .  S
C87          C88   1.396       .  A
C87         C325   1.470       .  S
C88          H91   1.085       .  S
C92          C93   1.399       .  A
C92          C97   1.406       .  A
C92         C265   1.474       .  S
C93          C94   1.394       .  A
C93          H98   1.084       .  S
C94          C95   1.401       .  A
C94         C345   1.470       .  S
C95          C96   1.402       .  A
C95          H99   1.085       .  S
C96          C97   1.405       .  A
C96         C245   1.479   1_554  S
C97         H100   1.085       .  S
O101        C117   1.273       .  A
O101       Zn107   2.012       .  S
C102        C254   1.477       .  S
C102        O118   1.275       .  A
C102        O115   1.273       .  A
O103        C116   1.279       .  A
O103       Cd110   2.105       .  S
O104        C122   1.272       .  A
O104       Cd113   2.062       .  S
O105        C119   1.275       .  A
O105       Cd109   2.080       .  S
O106        C117   1.276       .  A
O106       Cd109   2.084       .  S
Zn107       O118   2.028       .  S
Zn107       O120   2.012       .  S
Zn107       O112   1.944       .  S
O108        C119   1.274       .  A
O108       Cd113   2.066       .  S
Cd109       O111   2.081       .  S
Cd109       O112   2.010       .  S
Cd110       O114   2.096       .  S
Cd110       O123   2.093       .  S
Cd110       O112   2.013       .  S
O111        C121   1.277       .  A
O112       Cd113   2.006       .  S
Cd113       O115   2.068       .  S
O114        C121   1.279       .  A
C116        C414   1.500       .  S
C116        O120   1.272       .  A
C117        C225   1.487       .  S
C119        C214   1.476       .  S
C121        C294   1.485       .  S
C122        C374   1.474       .  S
C122        O123   1.278       .  A
C124        C125   1.410       .  A
C124        C129   1.404       .  A
C124        C234   1.487       .  S
C125        C126   1.407       .  A
C125        H130   1.083       .  S
C126        C127   1.398       .  A
C126        C185   1.479       .  S
C127        C128   1.398       .  A
C127        H131   1.085       .  S
C128        C129   1.397       .  A
C128        C514   1.471       .  S
C129        H132   1.086       .  S
C133        C134   1.403       .  A
C133        C138   1.406       .  A
C133        C205   1.482       .  S
C134        C135   1.402       .  A
C134        H139   1.084       .  S
C135        C136   1.403       .  A
C135        C494   1.483       .  S
C136        C137   1.405       .  A
C136        H140   1.084       .  S
C137        C138   1.406       .  A
C137        C165   1.487       .  S
C138        H141   1.085       .  S
O142        C158   1.273       .  A
O142       Zn148   2.005   1_455  S
C143        C174   1.478       .  S
C143        O159   1.275       .  A
C143        O156   1.275       .  A
O144        C157   1.274       .  A
O144       Cd151   2.065   1_455  S
O145        C163   1.275       .  A
O145       Cd154   2.082       .  S
O146        C160   1.272       .  A
O146       Cd150   2.054       .  S
O147        C158   1.275       .  A
O147       Cd150   2.077   1_455  S
Zn148       O159   2.033       .  S
Zn148       O161   2.019   1_655  S
Zn148       O153   1.942       .  S
O149        C160   1.275       .  A
O149       Cd154   2.070       .  S
Cd150       O152   2.081   1_655  S
Cd150       O153   2.005       .  S
Cd151       O155   2.076   1_655  S
Cd151       O164   2.059       .  S
Cd151       O153   1.995       .  S
O152        C162   1.276       .  A
O153       Cd154   2.008       .  S
Cd154       O156   2.080       .  S
O155        C162   1.275       .  A
C157        C594   1.484       .  S
C157        O161   1.274       .  A
C158        C314   1.488       .  S
C160        C274   1.467       .  S
C162        C194   1.491       .  S
C163        C525   1.470       .  S
C163        O164   1.273       .  A
C165        C166   1.412       .  A
C165        C170   1.412       .  A
C166        C167   1.409       .  A
C166       Br178   1.931       .  S
C167        C168   1.410       .  A
C167       Br182   1.930       .  S
C168        C169   1.410       .  A
C168        C171   1.491       .  S
C169        C170   1.410       .  A
C169       Br177   1.929       .  S
C170       Br181   1.928       .  S
C171        C172   1.411       .  A
C171        C176   1.411       .  A
C172        C173   1.411       .  A
C172       Br183   1.928       .  S
C173        C174   1.410       .  A
C173       Br179   1.928       .  S
C174        C175   1.408       .  A
C175        C176   1.408       .  A
C175       Br184   1.929       .  S
C176       Br180   1.930       .  S
C185        C186   1.408       .  A
C185        C190   1.410       .  A
C186        C187   1.407   1_556  A
C186       Br198   1.929       .  S
C187        C188   1.410       .  A
C187       Br202   1.929       .  S
C188        C189   1.410   1_554  A
C188        C191   1.487       .  S
C189        C190   1.409       .  A
C189       Br197   1.929       .  S
C190       Br201   1.929       .  S
C191        C192   1.407       .  A
C191        C196   1.407       .  A
C192        C193   1.410       .  A
C192       Br203   1.931       .  S
C193        C194   1.419       .  A
C193       Br199   1.932   1_455  S
C194        C195   1.416       .  A
C195        C196   1.409       .  A
C195       Br204   1.929       .  S
C196       Br200   1.931       .  S
C205        C206   1.410       .  A
C205        C210   1.411       .  A
C206        C207   1.409       .  A
C206       Br218   1.928       .  S
C207        C208   1.409       .  A
C207       Br222   1.928       .  S
C208        C209   1.409       .  A
C208        C211   1.485       .  S
C209        C210   1.407       .  A
C209       Br217   1.931       .  S
C210       Br221   1.927       .  S
C211        C212   1.409       .  A
C211        C216   1.410       .  A
C212        C213   1.407       .  A
C212       Br223   1.930       .  S
C213        C214   1.410       .  A
C213       Br219   1.930       .  S
C214        C215   1.410       .  A
C215        C216   1.409       .  A
C215       Br224   1.930       .  S
C216       Br220   1.929       .  S
C225        C226   1.414       .  A
C225        C230   1.416       .  A
C226        C227   1.408       .  A
C226       Br238   1.928       .  S
C227        C228   1.410       .  A
C227       Br242   1.932       .  S
C228        C229   1.408       .  A
C228        C231   1.488       .  S
C229        C230   1.409       .  A
C229       Br237   1.930       .  S
C230       Br241   1.933       .  S
C231        C232   1.410       .  A
C231        C236   1.409       .  A
C232        C233   1.407       .  A
C232       Br243   1.931       .  S
C233        C234   1.413       .  A
C233       Br239   1.930       .  S
C234        C235   1.414       .  A
C235        C236   1.408       .  A
C235       Br244   1.931       .  S
C236       Br240   1.930       .  S
C245        C246   1.409       .  A
C245        C250   1.409       .  A
C246        C247   1.406       .  A
C246       Br258   1.928   1_556  S
C247        C248   1.409       .  A
C247       Br262   1.930       .  S
C248        C249   1.411       .  A
C248        C251   1.486       .  S
C249        C250   1.409       .  A
C249       Br257   1.929       .  S
C250       Br261   1.928       .  S
C251        C252   1.410       .  A
C251        C256   1.410       .  A
C252        C253   1.409       .  A
C252       Br263   1.929       .  S
C253        C254   1.410       .  A
C253       Br259   1.930       .  S
C254        C255   1.410       .  A
C255        C256   1.407       .  A
C255       Br264   1.928       .  S
C256       Br260   1.930       .  S
C265        C266   1.410       .  A
C265        C270   1.410       .  A
C266        C267   1.405       .  A
C266       Br278   1.930       .  S
C267        C268   1.407       .  A
C267       Br282   1.929       .  S
C268        C269   1.408       .  A
C268        C271   1.477       .  S
C269        C270   1.404       .  A
C269       Br277   1.931       .  S
C270       Br281   1.928       .  S
C271        C272   1.408       .  A
C271        C276   1.409       .  A
C272        C273   1.404       .  A
C272       Br283   1.930       .  S
C273        C274   1.409       .  A
C273       Br279   1.931       .  S
C274        C275   1.408       .  A
C275        C276   1.405       .  A
C275       Br284   1.930       .  S
C276       Br280   1.929       .  S
C285        C286   1.411       .  A
C285        C290   1.412       .  A
C286        C287   1.409       .  A
C286       Br298   1.930       .  S
C287        C288   1.409       .  A
C287       Br302   1.929       .  S
C288        C289   1.409       .  A
C288        C291   1.489       .  S
C289        C290   1.409       .  A
C289       Br297   1.930       .  S
C290       Br301   1.925       .  S
C291        C292   1.410       .  A
C291        C296   1.408       .  A
C292        C293   1.409       .  A
C292       Br303   1.931       .  S
C293        C294   1.412       .  A
C293       Br299   1.926       .  S
C294        C295   1.412       .  A
C295        C296   1.410       .  A
C295       Br304   1.926       .  S
C296       Br300   1.929       .  S
C305        C306   1.411       .  A
C305        C310   1.415       .  A
C306        C307   1.404       .  A
C306       Br318   1.926       .  S
C307        C308   1.408       .  A
C307       Br322   1.932       .  S
C308        C309   1.408       .  A
C308        C311   1.483       .  S
C309        C310   1.409       .  A
C309       Br317   1.930       .  S
C310       Br321   1.931       .  S
C311        C312   1.407       .  A
C311        C316   1.405       .  A
C312        C313   1.408       .  A
C312       Br323   1.931       .  S
C313        C314   1.417       .  A
C313       Br319   1.930       .  S
C314        C315   1.420       .  A
C315        C316   1.406       .  A
C315       Br324   1.935   1_455  S
C316       Br320   1.932       .  S
C325        C326   1.407       .  A
C325        C330   1.408       .  A
C326        C327   1.403       .  A
C326       Br338   1.930       .  S
C327        C328   1.409       .  A
C327       Br342   1.930       .  S
C328        C329   1.409       .  A
C328        C331   1.478       .  S
C329        C330   1.406       .  A
C329       Br337   1.929       .  S
C330       Br341   1.929       .  S
C331        C332   1.407       .  A
C331        C336   1.406       .  A
C332        C333   1.405       .  A
C332       Br343   1.932       .  S
C333        C334   1.413       .  A
C333       Br339   1.928       .  S
C334        C335   1.415       .  A
C335        C336   1.406       .  A
C335       Br344   1.933       .  S
C336       Br340   1.930       .  S
C345        C346   1.409       .  A
C345        C350   1.408       .  A
C346        C347   1.406       .  A
C346       Br358   1.928       .  S
C347        C348   1.408       .  A
C347       Br362   1.928       .  S
C348        C349   1.408       .  A
C348        C351   1.475       .  S
C349        C350   1.402       .  A
C349       Br357   1.929       .  S
C350       Br361   1.931       .  S
C351        C352   1.407       .  A
C351        C356   1.409       .  A
C352        C353   1.406       .  A
C352       Br363   1.928       .  S
C353        C354   1.410       .  A
C353       Br359   1.930       .  S
C354        C355   1.407       .  A
C355        C356   1.403       .  A
C355       Br364   1.927       .  S
C356       Br360   1.931       .  S
C365        C366   1.409       .  A
C365        C370   1.408       .  A
C366        C367   1.408       .  A
C366       Br378   1.929       .  S
C367        C368   1.410       .  A
C367       Br382   1.928       .  S
C368        C369   1.409       .  A
C368        C371   1.483       .  S
C369        C370   1.404       .  A
C369       Br377   1.930       .  S
C370       Br381   1.928       .  S
C371        C372   1.409       .  A
C371        C376   1.410       .  A
C372        C373   1.405       .  A
C372       Br383   1.932       .  S
C373        C374   1.408       .  A
C373       Br379   1.925       .  S
C374        C375   1.410       .  A
C375        C376   1.409       .  A
C375       Br384   1.929       .  S
C376       Br380   1.929       .  S
C385        C386   1.409       .  A
C385        C390   1.409       .  A
C386        C387   1.405       .  A
C386       Br398   1.929       .  S
C387        C388   1.408       .  A
C387       Br402   1.928       .  S
C388        C389   1.407       .  A
C388        C391   1.475       .  S
C389        C390   1.402       .  A
C389       Br397   1.931       .  S
C390       Br401   1.928       .  S
C391        C392   1.407       .  A
C391        C396   1.408       .  A
C392        C393   1.406       .  A
C392       Br403   1.928       .  S
C393        C394   1.410       .  A
C393       Br399   1.930       .  S
C394        C395   1.408       .  A
C395        C396   1.402       .  A
C395       Br404   1.928       .  S
C396       Br400   1.932       .  S
C405        C406   1.410       .  A
C405        C410   1.408       .  A
C406        C407   1.411       .  A
C406       Br418   1.929       .  S
C407        C408   1.410       .  A
C407       Br422   1.927       .  S
C408        C409   1.411       .  A
C408        C411   1.490       .  S
C409        C410   1.407       .  A
C409       Br417   1.930       .  S
C410       Br421   1.930       .  S
C411        C412   1.405       .  A
C411        C416   1.407       .  A
C412        C413   1.410       .  A
C412       Br423   1.933       .  S
C413        C414   1.424       .  A
C413       Br419   1.932       .  S
C414        C415   1.419       .  A
C415        C416   1.412       .  A
C415       Br424   1.932       .  S
C416       Br420   1.930       .  S
C425        C426   1.411       .  A
C425        C430   1.410       .  A
C426        C427   1.406   1_556  A
C426       Br438   1.926       .  S
C427        C428   1.408       .  A
C427       Br442   1.931       .  S
C428        C429   1.408       .  A
C428        C431   1.481       .  S
C429        C430   1.407   1_554  A
C429       Br437   1.928       .  S
C430       Br441   1.929       .  S
C431        C432   1.408       .  A
C431        C436   1.408       .  A
C432        C433   1.404       .  A
C432       Br443   1.933       .  S
C433        C434   1.411       .  A
C433       Br439   1.929       .  S
C434        C435   1.413       .  A
C435        C436   1.409       .  A
C435       Br444   1.931       .  S
C436       Br440   1.928       .  S
C445        C446   1.406       .  A
C445        C450   1.407       .  A
C446        C447   1.402       .  A
C446       Br458   1.929       .  S
C447        C448   1.408       .  A
C447       Br462   1.929       .  S
C448        C449   1.407       .  A
C448        C451   1.471       .  S
C449        C450   1.402       .  A
C449       Br457   1.929       .  S
C450       Br461   1.930       .  S
C451        C452   1.408       .  A
C451        C456   1.407       .  A
C452        C453   1.402       .  A
C452       Br463   1.930       .  S
C453        C454   1.405       .  A
C453       Br459   1.929       .  S
C454        C455   1.407       .  A
C455        C456   1.403       .  A
C455       Br464   1.929       .  S
C456       Br460   1.929       .  S
C465        C466   1.415       .  A
C465        C470   1.415       .  A
C466        C467   1.407       .  A
C466       Br478   1.927       .  S
C467        C468   1.409       .  A
C467       Br482   1.933       .  S
C468        C469   1.409       .  A
C468        C471   1.488       .  S
C469        C470   1.409       .  A
C469       Br477   1.930       .  S
C470       Br481   1.931       .  S
C471        C472   1.410       .  A
C471        C476   1.410       .  A
C472        C473   1.408       .  A
C472       Br483   1.930       .  S
C473        C474   1.412       .  A
C473       Br479   1.932   1_455  S
C474        C475   1.412       .  A
C475        C476   1.408       .  A
C475       Br484   1.929       .  S
C476       Br480   1.932       .  S
C485        C486   1.415       .  A
C485        C490   1.416       .  A
C486        C487   1.407       .  A
C486       Br498   1.930       .  S
C487        C488   1.409       .  A
C487       Br502   1.933       .  S
C488        C489   1.407       .  A
C488        C491   1.485       .  S
C489        C490   1.408       .  A
C489       Br497   1.929       .  S
C490       Br501   1.932       .  S
C491        C492   1.408   1_565  A
C491        C496   1.410       .  A
C492        C493   1.406       .  A
C492       Br503   1.931       .  S
C493        C494   1.411       .  A
C493       Br499   1.927       .  S
C494        C495   1.411       .  A
C495        C496   1.409   1_545  A
C495       Br504   1.929       .  S
C496       Br500   1.929       .  S
C505        C506   1.416       .  A
C505        C510   1.417       .  A
C506        C507   1.403       .  A
C506       Br518   1.932       .  S
C507        C508   1.407       .  A
C507       Br522   1.934       .  S
C508        C509   1.405       .  A
C508        C511   1.477       .  S
C509        C510   1.407       .  A
C509       Br517   1.929       .  S
C510       Br521   1.933       .  S
C511        C512   1.409   1_565  A
C511        C516   1.408       .  A
C512        C513   1.403       .  A
C512       Br523   1.930       .  S
C513        C514   1.407       .  A
C513       Br519   1.929       .  S
C514        C515   1.409   1_545  A
C515        C516   1.406       .  A
C515       Br524   1.928       .  S
C516       Br520   1.928       .  S
C525        C526   1.408       .  A
C525        C530   1.408   1_545  A
C526        C527   1.406   1_545  A
C526       Br538   1.929       .  S
C527        C528   1.409       .  A
C527       Br542   1.929       .  S
C528        C529   1.409       .  A
C528        C531   1.482       .  S
C529        C530   1.407       .  A
C529       Br537   1.928       .  S
C530       Br541   1.928       .  S
C531        C532   1.407       .  A
C531        C536   1.408       .  A
C532        C533   1.407       .  A
C532       Br543   1.929       .  S
C533        C534   1.412       .  A
C533       Br539   1.931       .  S
C534        C535   1.413       .  A
C535        C536   1.406       .  A
C535       Br544   1.931       .  S
C536       Br540   1.931       .  S
C545        C546   1.409       .  A
C545        C550   1.409       .  A
C546        C547   1.409       .  A
C546       Br558   1.928       .  S
C547        C548   1.410       .  A
C547       Br562   1.928       .  S
C548        C549   1.410       .  A
C548        C551   1.487       .  S
C549        C550   1.407       .  A
C549       Br557   1.930       .  S
C550       Br561   1.929   1_556  S
C551        C552   1.409       .  A
C551        C556   1.410       .  A
C552        C553   1.409       .  A
C552       Br563   1.929       .  S
C553        C554   1.411       .  A
C553       Br559   1.929       .  S
C554        C555   1.409       .  A
C555        C556   1.407       .  A
C555       Br564   1.928       .  S
C556       Br560   1.929       .  S
C565        C566   1.412       .  A
C565        C570   1.413       .  A
C566        C567   1.406       .  A
C566       Br578   1.931       .  S
C567        C568   1.408       .  A
C567       Br582   1.931       .  S
C568        C569   1.408       .  A
C568        C571   1.484       .  S
C569        C570   1.409       .  A
C569       Br577   1.929       .  S
C570       Br581   1.929       .  S
C571        C572   1.409       .  A
C571        C576   1.409       .  A
C572        C573   1.407       .  A
C572       Br583   1.929       .  S
C573        C574   1.411       .  A
C573       Br579   1.931       .  S
C574        C575   1.409       .  A
C575        C576   1.407       .  A
C575       Br584   1.927       .  S
C576       Br580   1.928       .  S
C585        C586   1.408       .  A
C585        C590   1.408       .  A
C586        C587   1.405       .  A
C586       Br598   1.930       .  S
C587        C588   1.409       .  A
C587       Br602   1.930       .  S
C588        C589   1.409       .  A
C588        C591   1.481       .  S
C589        C590   1.406       .  A
C589       Br597   1.928       .  S
C590       Br601   1.929       .  S
C591        C592   1.406       .  A
C591        C596   1.407       .  A
C592        C593   1.407   1_565  A
C592       Br603   1.930       .  S
C593        C594   1.416       .  A
C593       Br599   1.933       .  S
C594        C595   1.416       .  A
C595        C596   1.407   1_545  A
C595       Br604   1.933   1_455  S
C596       Br600   1.932       .  S
C605        C606   1.409       .  A
C605        C610   1.409       .  A
C606        C607   1.404       .  A
C606       Br618   1.931       .  S
C607        C608   1.410       .  A
C607       Br622   1.930       .  S
C608        C609   1.410       .  A
C608        C611   1.482       .  S
C609        C610   1.407       .  A
C609       Br617   1.930       .  S
C610       Br621   1.929       .  S
C611        C612   1.409       .  A
C611        C616   1.410       .  A
C612        C613   1.407       .  A
C612       Br623   1.929       .  S
C613        C614   1.409       .  A
C613       Br619   1.927       .  S
C614        C615   1.408       .  A
C615        C616   1.404       .  A
C615       Br624   1.929   1_455  S
C616       Br620   1.932       .  S
C625        C626   1.419       .  A
C625        C630   1.420       .  A
C626        C627   1.407       .  A
C626       Br638   1.931       .  S
C627        C628   1.405       .  A
C627       Br642   1.931       .  S
C628        C629   1.405       .  A
C628        C631   1.480       .  S
C629        C630   1.406       .  A
C629       Br637   1.933       .  S
C630       Br641   1.935       .  S
C631        C632   1.408       .  A
C631        C636   1.408       .  A
C632        C633   1.407       .  A
C632       Br643   1.929       .  S
C633        C634   1.411       .  A
C633       Br639   1.930       .  S
C634        C635   1.410       .  A
C635        C636   1.404       .  A
C635       Br644   1.931       .  S
C636       Br640   1.931       .  S
