geometry optimzed in LAMMPS
_audit_creation_date              2020-11-30 
_audit_creation_method            'lammps2cif' 
_symmetry_space_group_name_H-M    'P1' 
_symmetry_Int_Tables_number       1 
_symmetry_cell_setting            triclinic 
loop_ 
_symmetry_equiv_pos_as_xyz 
  x,y,z 
_cell_length_a                    33.35464351 
_cell_length_b                    33.34257732889609 
_cell_length_c                    27.94005636342547 
_cell_angle_alpha                 89.99524330859408 
_cell_angle_beta                  90.00128051912627 
_cell_angle_gamma                 120.2877116980502 
loop_ 
_atom_site_label 
_atom_site_type_symbol 
_atom_site_fract_x 
_atom_site_fract_y 
_atom_site_fract_z 
_atom_site_charge 
C1          C  0.33010578  0.66626653  0.20228767     0.48400
H2          H  0.32972553  0.66596647  0.16249166    -0.00600
C3          C  0.33104922  0.66701568  0.29576156     0.48500
H4          H  0.33143242  0.66731027  0.33556068    -0.00600
C5          C  0.35389769  0.71510484  0.22420910    -0.14300
C6          C  0.28167740  0.64113225  0.22508706    -0.14000
C7          C  0.35542031  0.64312355  0.22443717    -0.14400
C8          C  0.35429856  0.71548819  0.27314414    -0.14400
C9          C  0.28222618  0.64159188  0.27399631    -0.14000
C10         C  0.35593296  0.64354203  0.27332957    -0.14300
N11         N  0.27169699  0.42512479  0.74926107    -0.33600
N12         N  0.20876133  0.42150473  0.67475071    -0.54200
N13         N  0.14777589  0.42125587  0.74940630    -0.33600
N14         N  0.20885607  0.42110601  0.82370925    -0.54200
C15         C  0.29078703  0.41751789  0.71007212     0.30000
C16         C  0.29049210  0.41663261  0.78815582     0.30000
C17         C  0.12056837  0.41260320  0.71035954     0.29900
C18         C  0.12068421  0.41258113  0.78854323     0.29900
C19         C  0.24634246  0.43196818  0.64751607     0.38600
C20         C  0.18026223  0.42998532  0.64758238     0.38600
C21         C  0.24573528  0.42990886  0.85129921     0.38600
C22         C  0.18014105  0.42883460  0.85132988     0.38600
C23         C  0.32203624  0.40392626  0.72423179    -0.18900
C24         C  0.32183368  0.40334851  0.77347261    -0.18900
C25         C  0.07540009  0.39769985  0.72486951    -0.18900
C26         C  0.07548395  0.39773316  0.77419262    -0.18900
C27         C  0.24121767  0.44613670  0.60241134    -0.20000
C28         C  0.19934929  0.44489372  0.60245303    -0.20000
C29         C  0.23995918  0.44230766  0.89704230    -0.20000
C30         C  0.19841278  0.44168291  0.89705285    -0.20000
C31         C  0.28411820  0.42688904  0.66228341    -0.15300
C32         C  0.28335027  0.42472817  0.83626089    -0.15300
C33         C  0.13672583  0.42230336  0.83641659    -0.15300
C34         C  0.13660573  0.42288838  0.66252000    -0.15300
H35         H  0.34353851  0.39621381  0.70145600     0.17600
H36         H  0.34313906  0.39509193  0.79592259     0.17600
H37         H  0.04575568  0.38905504  0.70227544     0.17600
H38         H  0.04590075  0.38905983  0.79689545     0.17600
H39         H  0.26513212  0.45631407  0.57261532     0.15900
H40         H  0.18467149  0.45394337  0.57268328     0.15900
H41         H  0.26314123  0.45073682  0.92727998     0.15900
H42         H  0.18326525  0.44948000  0.92734093     0.15900
H43         H  0.25216511  0.44142822  0.74945555     0.29100
H44         H  0.18376703  0.43870085  0.74936371     0.29100
N45         N  0.14900884  0.72879378  0.75122142    -0.33600
N46         N  0.20960415  0.79240473  0.67771437    -0.54200
N47         N  0.27158622  0.85128996  0.75303602    -0.33600
N48         N  0.20931929  0.78963546  0.82653956    -0.54200
C49         C  0.12168910  0.71130140  0.71204234     0.30000
C50         C  0.12178858  0.70972458  0.79020191     0.30000
C51         C  0.29076797  0.87896953  0.71441176     0.29900
C52         C  0.28992334  0.87790619  0.79251016     0.29900
C53         C  0.18151046  0.75550128  0.64993397     0.38600
C54         C  0.24746346  0.82034558  0.65102586     0.38600
C55         C  0.18167315  0.75149547  0.85289708     0.38600
C56         C  0.24676464  0.81699692  0.85390821     0.38600
C57         C  0.07638383  0.68085882  0.72631891    -0.18900
C58         C  0.07644879  0.67985567  0.77564066    -0.18900
C59         C  0.32147058  0.92393005  0.72949264    -0.18900
C60         C  0.32086733  0.92328590  0.77879289    -0.18900
C61         C  0.20114170  0.76051456  0.60501102    -0.20000
C62         C  0.24295550  0.80156972  0.60572100    -0.20000
C63         C  0.20128943  0.75493674  0.89756609    -0.20000
C64         C  0.24256799  0.79650901  0.89821621    -0.20000
C65         C  0.13765142  0.71838037  0.66412048    -0.15300
C66         C  0.13783090  0.71507935  0.83797866    -0.15300
C67         C  0.28347298  0.86109653  0.84001961    -0.15300
C68         C  0.28490291  0.86351597  0.66642018    -0.15300
H69         H  0.04660619  0.66056460  0.70353812     0.17600
H70         H  0.04673286  0.65864660  0.79817158     0.17600
H71         H  0.34303718  0.95380857  0.70729510     0.17600
H72         H  0.34195508  0.95256706  0.80188967     0.17600
H73         H  0.18687316  0.73703323  0.57490351     0.15900
H74         H  0.26720653  0.81596827  0.57624377     0.15900
H75         H  0.18724024  0.73021195  0.92668872     0.15900
H76         H  0.26664525  0.81012845  0.92790719     0.15900
H77         H  0.18506616  0.74726539  0.75120495     0.29100
H78         H  0.25262419  0.81524504  0.75244865     0.29100
N79         N  0.84806909  0.57707242  0.24903096    -0.33600
N80         N  0.78873760  0.58054556  0.17466624    -0.54200
N81         N  0.72845277  0.58154230  0.24953035    -0.33600
N82         N  0.78972396  0.58180140  0.32373592    -0.54200
C83         C  0.87479876  0.58461155  0.20981735     0.30000
C84         C  0.87543025  0.58552127  0.28790460     0.30000
C85         C  0.70970185  0.58977858  0.21043327     0.29900
C86         C  0.71025340  0.59047644  0.28864043     0.29900
C87         C  0.81568509  0.57002109  0.14737786     0.38600
C88         C  0.75158061  0.57194217  0.14764269     0.38600
C89         C  0.81733528  0.57226565  0.35108560     0.38600
C90         C  0.75320411  0.57403599  0.35135800     0.38600
C91         C  0.91973962  0.59813353  0.22395429    -0.18900
C92         C  0.92013744  0.59871416  0.27319934    -0.18900
C93         C  0.67952452  0.60465731  0.22488003    -0.18900
C94         C  0.67986107  0.60508128  0.27420208    -0.18900
C95         C  0.79610299  0.55565549  0.10237089    -0.20000
C96         C  0.75545835  0.55684466  0.10254183    -0.20000
C97         C  0.79879348  0.55932608  0.39667948    -0.20000
C98         C  0.75812113  0.56041748  0.39684893    -0.20000
C99         C  0.85864197  0.57520845  0.16203897    -0.15300
C100        C  0.86007855  0.57728565  0.33598833    -0.15300
C101        C  0.71661824  0.58099883  0.33658291    -0.15300
C102        C  0.71520777  0.57921520  0.16263280    -0.15300
H103        H  0.94898550  0.60575724  0.20116418     0.17600
H104        H  0.94974675  0.60687251  0.29564003     0.17600
H105        H  0.65836432  0.61296926  0.20225717     0.17600
H106        H  0.65902985  0.61380236  0.29685455     0.17600
H107        H  0.80965665  0.54538123  0.07256545     0.15900
H108        H  0.73153558  0.54766465  0.07286557     0.15900
H109        H  0.81311753  0.55018302  0.42669738     0.15900
H110        H  0.73494287  0.55228672  0.42704510     0.15900
H111        H  0.81210599  0.56078893  0.24930817     0.29100
H112        H  0.74694114  0.56420190  0.24956850     0.29100
Zn113      Zn  0.93138473  0.46513729  0.01471439     1.49700
Zn114      Zn  0.02592307  0.56156581  0.02579926     1.49400
Zn115      Zn  0.02633046  0.46402766  0.02483585     1.49100
Zn116      Zn  0.00446727  0.50204896  0.92896946     1.49500
O117        O  0.99742211  0.49842794  0.99874907    -1.81200
O118        O  0.91330888  0.50388318  0.05394490    -0.71800
O119        O  0.07688637  0.57151412  0.07167966    -0.71600
O120        O  0.97952912  0.40652474  0.06134332    -0.71100
O121        O  0.97873980  0.57147464  0.06296224    -0.71800
O122        O  0.91399881  0.40820330  0.05355008    -0.71400
O123        O  0.07705056  0.50470405  0.07106555    -0.72000
O124        O  0.04068211  0.47234747  0.90637650    -0.71400
O125        O  0.05575010  0.61059250  0.97339988    -0.72100
O126        O  0.05615994  0.44529894  0.97238496    -0.71500
O127        O  0.04022001  0.56837851  0.90697865    -0.72000
O128        O  0.94244333  0.47066194  0.89549618    -0.71900
O129        O  0.89201425  0.44541979  0.95586264    -0.71700
C130        C  0.93546776  0.54483553  0.07069599     0.80100
C131        C  0.09304935  0.54614752  0.08573481     0.80600
C132        C  0.93640599  0.38959591  0.06960023     0.79600
C133        C  0.05909306  0.45174852  0.92727464     0.79900
C134        C  0.05867568  0.60738313  0.92821741     0.81100
C135        C  0.90107635  0.44992492  0.91139741     0.80100
Zn136      Zn  0.02798104  0.46767584  0.47447705     1.49700
Zn137      Zn  0.93297831  0.46810405  0.48334644     1.49400
Zn138      Zn  0.00547817  0.50544848  0.57045218     1.49100
Zn139      Zn  0.02728549  0.56556816  0.47447299     1.49500
O140        O  0.99884002  0.50192943  0.50052714    -1.81200
O141        O  0.98178073  0.41009254  0.43676571    -0.71800
O142        O  0.89301116  0.44776272  0.54178937    -0.71600
O143        O  0.04120072  0.47505561  0.59338857    -0.71100
O144        O  0.91603548  0.41131154  0.44413076    -0.71800
O145        O  0.05727965  0.44859477  0.52730302    -0.71400
O146        O  0.94279390  0.47380317  0.60278309    -0.72000
O147        O  0.05667829  0.61459779  0.52726566    -0.71400
O148        O  0.91514525  0.50696528  0.44395542    -0.72100
O149        O  0.04123414  0.57192247  0.59326713    -0.71500
O150        O  0.98015383  0.57531313  0.43703948    -0.72000
O151        O  0.07865345  0.57607090  0.42899054    -0.71900
O152        O  0.07927310  0.50943489  0.42945110    -0.71700
C153        C  0.93864363  0.39289809  0.42814245     0.80100
C154        C  0.90159074  0.45250451  0.58636969     0.80600
C155        C  0.05972403  0.45452094  0.57250047     0.79600
C156        C  0.05953305  0.61116214  0.57243811     0.79900
C157        C  0.93717891  0.54829210  0.42814484     0.81100
C158        C  0.09519933  0.55097775  0.41512747     0.80100
N159        N  0.72883921  0.14766458  0.25071033    -0.33600
N160        N  0.79184962  0.20905359  0.32481625    -0.54200
N161        N  0.85019246  0.27251128  0.24965646    -0.33600
N162        N  0.79029325  0.20815843  0.17563768    -0.54200
C163        C  0.70928148  0.12112567  0.28999426     0.30000
C164        C  0.70847031  0.12074354  0.21183199     0.30000
C165        C  0.87717318  0.29311740  0.28844433     0.29900
C166        C  0.87659259  0.29231922  0.21033608     0.29900
C167        C  0.75575091  0.17983350  0.35291715     0.38600
C168        C  0.82032879  0.24604112  0.35233779     0.38600
C169        C  0.75394953  0.17865285  0.14803717     0.38600
C170        C  0.81874642  0.24446664  0.14742846     0.38600
C171        C  0.67604329  0.07662857  0.27586262    -0.18900
C172        C  0.67552628  0.07639618  0.22661566    -0.18900
C173        C  0.92120552  0.32668909  0.27354540    -0.18900
C174        C  0.92085133  0.32616723  0.22434495    -0.18900
C175        C  0.76210063  0.19769846  0.39889990    -0.20000
C176        C  0.80296334  0.23959662  0.39852735    -0.20000
C177        C  0.76002149  0.19569457  0.10170100    -0.20000
C178        C  0.80108130  0.23734642  0.10130613    -0.20000
C179        C  0.71742583  0.13701015  0.33797769    -0.15300
C180        C  0.71590516  0.13605609  0.16367213    -0.15300
C181        C  0.86099097  0.28339573  0.16232143    -0.15300
C182        C  0.86227986  0.28505568  0.33671474    -0.15300
H183        H  0.65369817  0.04757559  0.29867071     0.17600
H184        H  0.65274598  0.04713546  0.20425755     0.17600
H185        H  0.95043494  0.34969295  0.29580844     0.17600
H186        H  0.94975665  0.34871199  0.20148144     0.17600
H187        H  0.73946077  0.18235123  0.42946257     0.15900
H188        H  0.81795670  0.26282573  0.42872873     0.15900
H189        H  0.73719711  0.17987245  0.07135739     0.15900
H190        H  0.81606796  0.25990549  0.07061592     0.15900
H191        H  0.75001670  0.18344173  0.25053468     0.29100
H192        H  0.81449279  0.25075455  0.24996319     0.29100
N193        N  0.42309027  0.15173504  0.25299956    -0.33600
N194        N  0.42246743  0.21325592  0.32643170    -0.54200
N195        N  0.42331135  0.27390134  0.25104633    -0.33600
N196        N  0.42065626  0.21059787  0.17761022    -0.54200
C197        C  0.41498253  0.12526475  0.29251845     0.30000
C198        C  0.41472123  0.12411638  0.21439409     0.30000
C199        C  0.41469133  0.29262686  0.28991836     0.29900
C200        C  0.41349026  0.29113097  0.21174720     0.29900
C201        C  0.43243193  0.18603626  0.35393733     0.38600
C202        C  0.43258865  0.25118769  0.35286700     0.38600
C203        C  0.43023694  0.18261632  0.15088150     0.38600
C204        C  0.42947217  0.24735832  0.14975434     0.38600
C205        C  0.40072609  0.07999105  0.27884812    -0.18900
C206        C  0.40063269  0.07928808  0.22954617    -0.18900
C207        C  0.39893097  0.32199810  0.27514893    -0.18900
C208        C  0.39816839  0.32105174  0.22582890    -0.18900
C209        C  0.44825503  0.20640748  0.39840974    -0.20000
C210        C  0.44838121  0.24773683  0.39772284    -0.20000
C211        C  0.44433058  0.20124285  0.10545962    -0.20000
C212        C  0.44381620  0.24225395  0.10473766    -0.20000
C213        C  0.42535128  0.14215221  0.34003272    -0.15300
C214        C  0.42433685  0.13953820  0.16636003    -0.15300
C215        C  0.42263603  0.28422899  0.16388518    -0.15300
C216        C  0.42512939  0.28738552  0.33782509    -0.15300
H217        H  0.39270570  0.05083470  0.30197443     0.17600
H218        H  0.39246417  0.04948430  0.20739848     0.17600
H219        H  0.38999329  0.34282249  0.29755066     0.17600
H220        H  0.38853135  0.34101327  0.20292345     0.17600
H221        H  0.45847524  0.19284772  0.42825701     0.15900
H222        H  0.45867394  0.27228575  0.42695309     0.15900
H223        H  0.45384032  0.18674341  0.07589510     0.15900
H224        H  0.45287094  0.26557253  0.07452333     0.15900
H225        H  0.44007362  0.18778823  0.25239812     0.29100
H226        H  0.44118162  0.25584528  0.25119166     0.29100
N227        N  0.57797089  0.72960261  0.74964833    -0.33600
N228        N  0.58302080  0.79292103  0.82468291    -0.54200
N229        N  0.58209363  0.85435886  0.75056347    -0.33600
N230        N  0.58315105  0.79404977  0.67558528    -0.54200
C231        C  0.58467342  0.70940672  0.78852177     0.30000
C232        C  0.58550532  0.71047551  0.71040358     0.30000
C233        C  0.58898646  0.88085994  0.78982897     0.29900
C234        C  0.58867662  0.88119015  0.71163624     0.29900
C235        C  0.57451586  0.75604869  0.85229306     0.38600
C236        C  0.57655227  0.82225394  0.85282647     0.38600
C237        C  0.57541377  0.75785803  0.64738354     0.38600
C238        C  0.57631789  0.82337452  0.64791258     0.38600
C239        C  0.59625623  0.67680889  0.77375047    -0.18900
C240        C  0.59683444  0.67751932  0.72454162    -0.18900
C241        C  0.60031374  0.92525692  0.77561986    -0.18900
C242        C  0.60009261  0.92545276  0.72636204    -0.18900
C243        C  0.56399644  0.76267938  0.89855346    -0.20000
C244        C  0.56531643  0.80456381  0.89890393    -0.20000
C245        C  0.56496042  0.76488061  0.60121616    -0.20000
C246        C  0.56547666  0.80633223  0.60156074    -0.20000
C247        C  0.57745098  0.71715508  0.83676269    -0.15300
C248        C  0.57890211  0.71920806  0.66231462    -0.15300
C249        C  0.58075081  0.86581084  0.66348322    -0.15300
C250        C  0.58111338  0.86499569  0.83785242    -0.15300
H251        H  0.60311841  0.65443140  0.79610949     0.17600
H252        H  0.60416998  0.65574986  0.70174379     0.17600
H253        H  0.60701307  0.95426104  0.79838050     0.17600
H254        H  0.60661412  0.95462611  0.70395664     0.17600
H255        H  0.55597864  0.73964456  0.92886333     0.15900
H256        H  0.55845373  0.82005156  0.92954589     0.15900
H257        H  0.55753390  0.74240296  0.57051825     0.15900
H258        H  0.55853961  0.82204158  0.57115989     0.15900
H259        H  0.56328599  0.75053880  0.74981128     0.29100
H260        H  0.56756327  0.81864763  0.75039251     0.29100
Zn261      Zn  0.56379115  0.03001056  0.52637250     1.49700
Zn262      Zn  0.46584624  0.02928249  0.52702023     1.49400
Zn263      Zn  0.50332970  0.00734516  0.43048085     1.49100
Zn264      Zn  0.46683742  0.93447662  0.51703810     1.49500
O265        O  0.50012801  0.00052962  0.50032417    -1.81200
O266        O  0.57455285  0.08160431  0.57176172    -0.71800
O267        O  0.44752426  0.05974284  0.47497790    -0.71600
O268        O  0.56980601  0.04182371  0.40752767    -0.71100
O269        O  0.50716990  0.08050972  0.57216022    -0.71800
O270        O  0.61237027  0.05918933  0.47382592    -0.71400
O271        O  0.47484052  0.04509337  0.40863046    -0.72000
O272        O  0.44470901  0.89445712  0.45821982    -0.71400
O273        O  0.40862869  0.98275975  0.56483959    -0.72100
O274        O  0.46964757  0.94477890  0.39766574    -0.71500
O275        O  0.41094528  0.91750186  0.55805478    -0.72000
O276        O  0.50717792  0.91736210  0.55517536    -0.71900
O277        O  0.57442378  0.98351533  0.56315817    -0.71700
C278        C  0.54895733  0.09744002  0.58594781     0.80100
C279        C  0.45446648  0.06355243  0.42995269     0.80600
C280        C  0.60896566  0.06084640  0.42856599     0.79600
C281        C  0.44831238  0.90339922  0.41368240     0.79900
C282        C  0.39226749  0.93985089  0.57416229     0.81100
C283        C  0.54837007  0.94026541  0.57132055     0.80100
Zn284      Zn  0.46754227  0.53703899  0.51473422     1.49700
Zn285      Zn  0.56375097  0.53878677  0.52510408     1.49400
Zn286      Zn  0.46512522  0.44060354  0.52569215     1.49100
Zn287      Zn  0.50397412  0.50028602  0.42901157     1.49500
O288        O  0.50025030  0.50392050  0.49879820    -1.81200
O289        O  0.50717136  0.59426478  0.55347381    -0.71800
O290        O  0.57334106  0.49814798  0.57160175    -0.71600
O291        O  0.40792071  0.43060416  0.56297498    -0.71100
O292        O  0.57453850  0.59633773  0.56149143    -0.71800
O293        O  0.41062762  0.49821714  0.55418106    -0.71400
O294        O  0.50614889  0.43094764  0.57180913    -0.72000
O295        O  0.47356557  0.43386716  0.40693779    -0.71400
O296        O  0.61280291  0.55788139  0.47278870    -0.72100
O297        O  0.44581911  0.39148079  0.47316163    -0.71500
O298        O  0.57030697  0.53073475  0.40664124    -0.72000
O299        O  0.47319082  0.53126663  0.39547754    -0.71900
O300        O  0.44778995  0.55625307  0.45572737    -0.71700
C301        C  0.54832067  0.61311016  0.56962278     0.80100
C302        C  0.54775201  0.45661383  0.58616543     0.80600
C303        C  0.39155627  0.45725936  0.57090423     0.79600
C304        C  0.45256834  0.39477659  0.42804400     0.79900
C305        C  0.60942784  0.55156834  0.42764469     0.81100
C306        C  0.45245308  0.55176545  0.41128537     0.80100
Zn307      Zn  0.43728545  0.97329498  0.02712901     1.49700
Zn308      Zn  0.49698760  0.99460641  0.93035833     1.49400
Zn309      Zn  0.53399706  0.06762817  0.01668579     1.49100
Zn310      Zn  0.53395925  0.97162465  0.02616296     1.49500
O311        O  0.50045154  0.00150984  0.00019247    -1.81200
O312        O  0.38834406  0.94371358  0.97499611    -0.71800
O313        O  0.52619849  0.05711438  0.89746373    -0.71600
O314        O  0.49579692  0.08519875  0.05786690    -0.71100
O315        O  0.43045459  0.95726464  0.90879070    -0.71800
O316        O  0.42759320  0.02014905  0.06507278    -0.71400
O317        O  0.55205368  0.10754574  0.95789575    -0.72000
O318        O  0.59116200  0.01794415  0.06341451    -0.71400
O319        O  0.52859457  0.95994797  0.90717006    -0.72100
O320        O  0.59148503  0.08448178  0.05457081    -0.71500
O321        O  0.55337486  0.94247831  0.97357030    -0.72000
O322        O  0.49231367  0.91998771  0.07127243    -0.71900
O323        O  0.42628069  0.92155643  0.07207363    -0.71700
C324        C  0.39147664  0.93957227  0.93003653     0.80100
C325        C  0.54647387  0.09851667  0.91339476     0.80600
C326        C  0.45466575  0.06306212  0.07419654     0.79600
C327        C  0.60906896  0.06129811  0.07121593     0.79900
C328        C  0.54849654  0.94086048  0.92826650     0.81100
C329        C  0.45082189  0.90432439  0.08559157     0.80100
Zn330      Zn  0.50111850  0.49655244  0.07073068     1.49700
Zn331      Zn  0.46569302  0.53359072  0.98392351     1.49400
Zn332      Zn  0.56155772  0.53515782  0.97457343     1.49100
Zn333      Zn  0.46271288  0.43653464  0.97462569     1.49500
O334        O  0.49796026  0.50021672  0.00079888    -1.81200
O335        O  0.46974552  0.52742550  0.10340171    -0.71800
O336        O  0.50542982  0.59065929  0.94464655    -0.71600
O337        O  0.61014267  0.55430533  0.02742725    -0.71100
O338        O  0.44595714  0.55339154  0.04255981    -0.71800
O339        O  0.56745557  0.52742746  0.09353320    -0.71400
O340        O  0.57279857  0.59277935  0.93694894    -0.72000
O341        O  0.50374942  0.42667159  0.92884933    -0.71400
O342        O  0.40879538  0.49434716  0.94458772    -0.72100
O343        O  0.57115025  0.49372573  0.92929408    -0.71500
O344        O  0.40536393  0.42623347  0.93740120    -0.72000
O345        O  0.44364073  0.38749877  0.02729819    -0.71900
O346        O  0.47094163  0.43013024  0.09335668    -0.71700
C347        C  0.44977262  0.54852769  0.08711143     0.80100
C348        C  0.54657220  0.60953582  0.92845518     0.80600
C349        C  0.60664889  0.54817612  0.07260861     0.79600
C350        C  0.54552066  0.45213913  0.91489788     0.79900
C351        C  0.38938318  0.45308145  0.92864150     0.81100
C352        C  0.45022793  0.39092925  0.07242909     0.80100
C353        C  0.66340801  0.33573505  0.70212512     0.48400
H354        H  0.66333750  0.33604415  0.66232998    -0.00600
C355        C  0.66363544  0.33497136  0.79559786     0.48500
H356        H  0.66377074  0.33466368  0.83539561    -0.02000
C357        C  0.63802433  0.28687224  0.72403952    -0.14300
C358        C  0.71208304  0.35883404  0.72422666    -0.14000
C359        C  0.64039215  0.36095017  0.72497678    -0.14400
C360        C  0.63803608  0.28649175  0.77297448    -0.14400
C361        C  0.71219150  0.35841820  0.77313105    -0.14000
C362        C  0.64048769  0.36047310  0.77389112    -0.14300
C363        C  0.62014001  0.38127360  0.80296204    -0.15500
C364        C  0.60259540  0.39806059  0.82726722     0.08500
C365        C  0.58191073  0.41710624  0.85637836     0.10400
C366        C  0.56474897  0.43311397  0.88237487    -0.16400
C367        C  0.56381830  0.13650588  0.88033471    -0.15500
C368        C  0.57953191  0.16983069  0.85431801     0.08500
C369        C  0.59916171  0.20991091  0.82535630     0.10400
C370        C  0.61664993  0.24462613  0.80133103    -0.16400
C371        C  0.56684248  0.43776715  0.61917858    -0.15500
C372        C  0.58357413  0.42125158  0.64514051     0.08500
C373        C  0.60351884  0.40095091  0.67361050     0.10400
C374        C  0.62044961  0.38291280  0.69699203    -0.16400
C375        C  0.61772995  0.24538591  0.69518733    -0.15500
C376        C  0.60167073  0.21066537  0.67127876     0.08500
C377        C  0.58350220  0.17028860  0.64293913     0.10400
C378        C  0.56799919  0.13642860  0.61774576    -0.16400
C379        C  0.57331649  0.68501863  0.62667243    -0.10300
C380        C  0.56454646  0.65359973  0.59930245    -0.11900
C381        C  0.57438973  0.89439688  0.62847368    -0.10300
C382        C  0.56492494  0.91648479  0.60113166    -0.11900
C383        C  0.56273888  0.65020615  0.89867792    -0.10300
C384        C  0.57137700  0.68210125  0.87182693    -0.11900
C385        C  0.56459568  0.91567450  0.89979412    -0.10300
C386        C  0.57430025  0.89320908  0.87312766    -0.11900
C387        C  0.42758465  0.31831645  0.12820451    -0.10300
C388        C  0.43551138  0.34974820  0.10099187    -0.11900
C389        C  0.43012579  0.32204985  0.37271220    -0.10300
C390        C  0.43786058  0.35355314  0.39968159    -0.11900
C391        C  0.43163546  0.11380526  0.37542573    -0.10300
C392        C  0.44012075  0.09043406  0.40202529    -0.11900
C393        C  0.43927888  0.08750531  0.10475362    -0.10300
C394        C  0.43058891  0.11041128  0.13186856    -0.11900
C395        C  0.68244278  0.10867272  0.37329491    -0.10300
C396        C  0.65029611  0.08608977  0.40006010    -0.11900
C397        C  0.64939389  0.08493768  0.10123373    -0.10300
C398        C  0.68093159  0.10717472  0.12868932    -0.11900
C399        C  0.91436181  0.35219408  0.39848887    -0.10300
C400        C  0.89123879  0.32019560  0.37170126    -0.11900
C401        C  0.86322509  0.43307252  0.61889478    -0.15500
C402        C  0.82935324  0.41608304  0.64409898     0.08500
C403        C  0.78868223  0.39597737  0.67205881     0.10400
C404        C  0.75371032  0.37893708  0.69560357    -0.16400
C405        C  0.88945445  0.31769942  0.12665972    -0.10300
C406        C  0.91209418  0.34915261  0.09928503    -0.11900
C407        C  0.86310290  0.43095423  0.87844544    -0.15500
C408        C  0.82944532  0.41439221  0.85298647     0.08500
C409        C  0.78890356  0.39475172  0.82492303     0.10400
C410        C  0.75392346  0.37807369  0.80146485    -0.16400
C411        C  0.91250452  0.56380186  0.39821886    -0.10300
C412        C  0.88923664  0.57192844  0.37109991    -0.11900
C413        C  0.91052917  0.56036406  0.10023979    -0.10300
C414        C  0.88722967  0.56885746  0.12695980    -0.11900
C415        C  0.68212150  0.57558826  0.37183579    -0.10300
C416        C  0.65060439  0.56697037  0.39909072    -0.11900
C417        C  0.67989286  0.57282228  0.12793479    -0.10300
C418        C  0.64786573  0.56371936  0.10119913    -0.11900
C419        C  0.32046349  0.89271881  0.63190199    -0.10300
C420        C  0.35221831  0.91562772  0.60474796    -0.11900
C421        C  0.08539416  0.65242035  0.60118166    -0.10300
C422        C  0.10852977  0.68400433  0.62849888    -0.11900
C423        C  0.31812939  0.88969712  0.87539808    -0.10300
C424        C  0.35005077  0.91305086  0.90208562    -0.11900
C425        C  0.08492160  0.64864477  0.89989444    -0.10300
C426        C  0.10840530  0.68024360  0.87287697    -0.11900
C427        C  0.35104189  0.44173965  0.60057490    -0.10300
C428        C  0.31917071  0.43327104  0.62727322    -0.11900
C429        C  0.31771691  0.42968411  0.87147226    -0.10300
C430        C  0.34908336  0.43754379  0.89864716    -0.11900
C431        C  0.10782875  0.42945981  0.62782941    -0.10300
C432        C  0.08514571  0.43883950  0.60113802    -0.11900
C433        C  0.10782168  0.42804283  0.87153065    -0.10300
C434        C  0.08495225  0.43668530  0.89866708    -0.11900
C435        C  0.13124374  0.56522774  0.11857608    -0.15500
C436        C  0.16456408  0.58184138  0.14459525     0.08500
C437        C  0.20474806  0.60197491  0.17335554     0.10400
C438        C  0.23967162  0.61964354  0.19701419    -0.16400
C439        C  0.24095626  0.62127102  0.30303840    -0.15500
C440        C  0.20663033  0.60496924  0.32748342     0.08500
C441        C  0.16692345  0.58632711  0.35674672     0.10400
C442        C  0.13366858  0.57034998  0.38275567    -0.16400
C443        C  0.43088871  0.56775383  0.11972695    -0.15500
C444        C  0.41425393  0.58488615  0.14485428     0.08500
C445        C  0.39410304  0.60536762  0.17257049     0.10400
C446        C  0.37653707  0.62274914  0.19590274    -0.16400
C447        C  0.43352228  0.57057903  0.37825417    -0.15500
C448        C  0.41656230  0.58717665  0.35285309     0.08500
C449        C  0.39584931  0.60695097  0.32496589     0.10400
C450        C  0.37772711  0.62375768  0.30164897    -0.16400
C451        C  0.37434978  0.75654557  0.19531864    -0.15500
C452        C  0.39196186  0.79117231  0.17121808     0.08500
C453        C  0.41288700  0.83143971  0.14261640     0.10400
C454        C  0.43060320  0.86526166  0.11730995    -0.16400
C455        C  0.37434410  0.75731737  0.30151257    -0.15500
C456        C  0.39099164  0.79198737  0.32557880     0.08500
C457        C  0.41070005  0.83202519  0.35460255     0.10400
C458        C  0.42782675  0.86534241  0.38065973    -0.16400
loop_ 
_geom_bond_atom_site_label_1 
_geom_bond_atom_site_label_2 
_geom_bond_distance 
_geom_bond_site_symmetry_2 
_ccdc_geom_bond_type 
C1            H2   1.112       .  S
C1            C7   1.532       .  S
C1            C6   1.534       .  S
C1            C5   1.534       .  S
C3            H4   1.112       .  S
C3            C9   1.532       .  S
C3            C8   1.532       .  S
C3           C10   1.533       .  S
C5            C8   1.367       .  D
C5          C451   1.441       .  S
C6            C9   1.367       .  D
C6          C438   1.442       .  S
C7           C10   1.366       .  D
C7          C446   1.441       .  S
C8          C455   1.442       .  S
C9          C439   1.439       .  S
C10         C450   1.440       .  S
N11          C16   1.354       .  A
N11          C15   1.353       .  A
N11          H43   1.038       .  S
N12          C19   1.353       .  A
N12          C20   1.353       .  A
N13          C18   1.354       .  A
N13          C17   1.354       .  A
N13          H44   1.037       .  S
N14          C21   1.353       .  A
N14          C22   1.352       .  A
C15          C23   1.387       .  A
C15          C31   1.414       .  A
C16          C32   1.415       .  A
C16          C24   1.387       .  A
C17          C25   1.388       .  A
C17          C34   1.416       .  A
C18          C33   1.416       .  A
C18          C26   1.388       .  A
C19          C31   1.415       .  A
C19          C27   1.386       .  A
C20          C34   1.415       .  A
C20          C28   1.387       .  A
C21          C29   1.386       .  A
C21          C32   1.414       .  A
C22          C30   1.387       .  A
C22          C33   1.414       .  A
C23          C24   1.376       .  A
C23          H35   1.082       .  S
C24          H36   1.082       .  S
C25          C26   1.378       .  A
C25          H37   1.082       .  S
C26          H38   1.082       .  S
C27          C28   1.376       .  A
C27          H39   1.082       .  S
C28          H40   1.082       .  S
C29          C30   1.375       .  A
C29          H41   1.082       .  S
C30          H42   1.082       .  S
C31         C428   1.455       .  S
C32         C429   1.455       .  S
C33         C433   1.454       .  S
C34         C431   1.456       .  S
N45          C50   1.354       .  A
N45          C49   1.354       .  A
N45          H77   1.039       .  S
N46          C53   1.353       .  A
N46          C54   1.353       .  A
N47          C52   1.353       .  A
N47          C51   1.353       .  A
N47          H78   1.038       .  S
N48          C55   1.352       .  A
N48          C56   1.352       .  A
C49          C57   1.388       .  A
C49          C65   1.416       .  A
C50          C66   1.416       .  A
C50          C58   1.388       .  A
C51          C59   1.387       .  A
C51          C68   1.414       .  A
C52          C67   1.414       .  A
C52          C60   1.388       .  A
C53          C65   1.415       .  A
C53          C61   1.386       .  A
C54          C68   1.415       .  A
C54          C62   1.386       .  A
C55          C63   1.387       .  A
C55          C66   1.413       .  A
C56          C64   1.386       .  A
C56          C67   1.413       .  A
C57          C58   1.378       .  A
C57          H69   1.082       .  S
C58          H70   1.082       .  S
C59          C60   1.378       .  A
C59          H71   1.082       .  S
C60          H72   1.082       .  S
C61          C62   1.376       .  A
C61          H73   1.082       .  S
C62          H74   1.082       .  S
C63          C64   1.376       .  A
C63          H75   1.082       .  S
C64          H76   1.082       .  S
C65         C422   1.458       .  S
C66         C426   1.454       .  S
C67         C423   1.453       .  S
C68         C419   1.456       .  S
N79          C84   1.354       .  A
N79          C83   1.354       .  A
N79         H111   1.038       .  S
N80          C87   1.353       .  A
N80          C88   1.353       .  A
N81          C86   1.354       .  A
N81          C85   1.354       .  A
N81         H112   1.036       .  S
N82          C89   1.352       .  A
N82          C90   1.352       .  A
C83          C91   1.387       .  A
C83          C99   1.414       .  A
C84         C100   1.414       .  A
C84          C92   1.387       .  A
C85          C93   1.388       .  A
C85         C102   1.417       .  A
C86         C101   1.417       .  A
C86          C94   1.388       .  A
C87          C99   1.414       .  A
C87          C95   1.386       .  A
C88         C102   1.415       .  A
C88          C96   1.387       .  A
C89          C97   1.386       .  A
C89         C100   1.413       .  A
C90          C98   1.387       .  A
C90         C101   1.414       .  A
C91          C92   1.376       .  A
C91         H103   1.082       .  S
C92         H104   1.082       .  S
C93          C94   1.378       .  A
C93         H105   1.082       .  S
C94         H106   1.082       .  S
C95          C96   1.376       .  A
C95         H107   1.082       .  S
C96         H108   1.082       .  S
C97          C98   1.375       .  A
C97         H109   1.082       .  S
C98         H110   1.082       .  S
C99         C414   1.455       .  S
C100        C412   1.454       .  S
C101        C415   1.455       .  S
C102        C417   1.456       .  S
Zn113       O117   1.954   1_554  S
Zn113       O118   2.005       .  S
Zn113       O122   2.002       .  S
Zn113       O129   1.997   1_554  S
Zn114       O117   1.972   1_454  S
Zn114       O119   2.018       .  S
Zn114       O121   2.047   1_455  S
Zn114       O125   2.041   1_554  S
Zn115       O117   1.973   1_454  S
Zn115       O120   2.033   1_455  S
Zn115       O123   2.014       .  S
Zn115       O126   2.038   1_554  S
Zn116       O117   1.960   1_455  S
Zn116       O124   2.011       .  S
Zn116       O127   2.008       .  S
Zn116       O128   2.016   1_455  S
O118        C130   1.270       .  A
O119        C131   1.273       .  A
O120        C132   1.273       .  A
O121        C130   1.275       .  A
O122        C132   1.270       .  A
O123        C131   1.272       .  A
O124        C133   1.271       .  A
O125        C134   1.275       .  A
O126        C133   1.274       .  A
O127        C134   1.271       .  A
O128        C135   1.272       .  A
O129        C135   1.269       .  A
C130        C413   1.441       .  S
C131        C435   1.433       .  S
C132        C406   1.436       .  S
C133        C434   1.439       .  S
C134        C425   1.439       .  S
C135        C407   1.430       .  S
Zn136       O140   1.975   1_455  S
Zn136       O141   2.046   1_455  S
Zn136       O145   2.041       .  S
Zn136       O152   2.011       .  S
Zn137       O140   1.957       .  S
Zn137       O142   1.998       .  S
Zn137       O144   2.007       .  S
Zn137       O148   2.005       .  S
Zn138       O140   1.963   1_455  S
Zn138       O143   2.019       .  S
Zn138       O146   2.019   1_455  S
Zn138       O149   2.019       .  S
Zn139       O140   1.975   1_455  S
Zn139       O147   2.048       .  S
Zn139       O150   2.046   1_455  S
Zn139       O151   2.017       .  S
O141        C153   1.275       .  A
O142        C154   1.270       .  A
O143        C155   1.272       .  A
O144        C153   1.270       .  A
O145        C155   1.274       .  A
O146        C154   1.272       .  A
O147        C156   1.275       .  A
O148        C157   1.270       .  A
O149        C156   1.272       .  A
O150        C157   1.275       .  A
O151        C158   1.273       .  A
O152        C158   1.272       .  A
C153        C399   1.441       .  S
C154        C401   1.431       .  S
C155        C432   1.442       .  S
C156        C421   1.444       .  S
C157        C411   1.440       .  S
C158        C442   1.430       .  S
N159        C164   1.354       .  A
N159        C163   1.353       .  A
N159        H191   1.035       .  S
N160        C167   1.354       .  A
N160        C168   1.354       .  A
N161        C166   1.353       .  A
N161        C165   1.354       .  A
N161        H192   1.036       .  S
N162        C169   1.352       .  A
N162        C170   1.352       .  A
C163        C171   1.388       .  A
C163        C179   1.417       .  A
C164        C180   1.416       .  A
C164        C172   1.388       .  A
C165        C173   1.387       .  A
C165        C182   1.415       .  A
C166        C181   1.415       .  A
C166        C174   1.388       .  A
C167        C179   1.416       .  A
C167        C175   1.387       .  A
C168        C182   1.416       .  A
C168        C176   1.386       .  A
C169        C177   1.387       .  A
C169        C180   1.414       .  A
C170        C178   1.387       .  A
C170        C181   1.414       .  A
C171        C172   1.376       .  A
C171        H183   1.082       .  S
C172        H184   1.082       .  S
C173        C174   1.375       .  A
C173        H185   1.082       .  S
C174        H186   1.082       .  S
C175        C176   1.374       .  A
C175        H187   1.082       .  S
C176        H188   1.082       .  S
C177        C178   1.373       .  A
C177        H189   1.082       .  S
C178        H190   1.082       .  S
C179        C395   1.455       .  S
C180        C398   1.453       .  S
C181        C405   1.452       .  S
C182        C400   1.456       .  S
N193        C198   1.353       .  A
N193        C197   1.353       .  A
N193        H225   1.039       .  S
N194        C201   1.352       .  A
N194        C202   1.352       .  A
N195        C200   1.354       .  A
N195        C199   1.354       .  A
N195        H226   1.039       .  S
N196        C203   1.353       .  A
N196        C204   1.353       .  A
C197        C205   1.388       .  A
C197        C213   1.415       .  A
C198        C214   1.415       .  A
C198        C206   1.388       .  A
C199        C207   1.387       .  A
C199        C216   1.416       .  A
C200        C215   1.416       .  A
C200        C208   1.388       .  A
C201        C213   1.414       .  A
C201        C209   1.386       .  A
C202        C216   1.414       .  A
C202        C210   1.387       .  A
C203        C211   1.387       .  A
C203        C214   1.415       .  A
C204        C212   1.386       .  A
C204        C215   1.415       .  A
C205        C206   1.378       .  A
C205        H217   1.082       .  S
C206        H218   1.082       .  S
C207        C208   1.378       .  A
C207        H219   1.082       .  S
C208        H220   1.082       .  S
C209        C210   1.376       .  A
C209        H221   1.082       .  S
C210        H222   1.082       .  S
C211        C212   1.376       .  A
C211        H223   1.082       .  S
C212        H224   1.082       .  S
C213        C391   1.454       .  S
C214        C394   1.456       .  S
C215        C387   1.457       .  S
C216        C389   1.456       .  S
N227        C232   1.354       .  A
N227        C231   1.355       .  A
N227        H259   1.035       .  S
N228        C235   1.355       .  A
N228        C236   1.354       .  A
N229        C234   1.354       .  A
N229        C233   1.354       .  A
N229        H260   1.035       .  S
N230        C237   1.353       .  A
N230        C238   1.353       .  A
C231        C239   1.387       .  A
C231        C247   1.416       .  A
C232        C248   1.415       .  A
C232        C240   1.387       .  A
C233        C241   1.388       .  A
C233        C250   1.417       .  A
C234        C249   1.416       .  A
C234        C242   1.388       .  A
C235        C247   1.417       .  A
C235        C243   1.386       .  A
C236        C250   1.418       .  A
C236        C244   1.387       .  A
C237        C245   1.387       .  A
C237        C248   1.414       .  A
C238        C246   1.387       .  A
C238        C249   1.415       .  A
C239        C240   1.375       .  A
C239        H251   1.082       .  S
C240        H252   1.082       .  S
C241        C242   1.376       .  A
C241        H253   1.082       .  S
C242        H254   1.083       .  S
C243        C244   1.375       .  A
C243        H255   1.082       .  S
C244        H256   1.082       .  S
C245        C246   1.374       .  A
C245        H257   1.082       .  S
C246        H258   1.082       .  S
C247        C384   1.459       .  S
C248        C379   1.453       .  S
C249        C381   1.454       .  S
C250        C386   1.457       .  S
Zn261       O265   1.975       .  S
Zn261       O266   2.018       .  S
Zn261       O270   2.034       .  S
Zn261       O277   2.035   1_545  S
Zn262       O265   1.972       .  S
Zn262       O267   2.036       .  S
Zn262       O269   2.008       .  S
Zn262       O273   2.044   1_545  S
Zn263       O265   1.961       .  S
Zn263       O268   2.019       .  S
Zn263       O271   2.016       .  S
Zn263       O274   2.023   1_545  S
Zn264       O265   1.958   1_565  S
Zn264       O272   2.008       .  S
Zn264       O275   2.011       .  S
Zn264       O276   2.011       .  S
O266        C278   1.273       .  A
O267        C279   1.274       .  A
O268        C280   1.272       .  A
O269        C278   1.271       .  A
O270        C280   1.273       .  A
O271        C279   1.272       .  A
O272        C281   1.271       .  A
O273        C282   1.275       .  A
O274        C281   1.273       .  A
O275        C282   1.271       .  A
O276        C283   1.271       .  A
O277        C283   1.274       .  A
C278        C378   1.432       .  S
C279        C392   1.440       .  S
C280        C396   1.440       .  S
C281        C458   1.433       .  S
C282        C420   1.442       .  S
C283        C382   1.438       .  S
Zn284       O288   1.955       .  S
Zn284       O289   2.004       .  S
Zn284       O293   2.004       .  S
Zn284       O300   1.997       .  S
Zn285       O288   1.973       .  S
Zn285       O290   2.016       .  S
Zn285       O292   2.037       .  S
Zn285       O296   2.042       .  S
Zn286       O288   1.975       .  S
Zn286       O291   2.048       .  S
Zn286       O294   2.020       .  S
Zn286       O297   2.046       .  S
Zn287       O288   1.961       .  S
Zn287       O295   2.012       .  S
Zn287       O298   2.013       .  S
Zn287       O299   2.017       .  S
O289        C301   1.270       .  A
O290        C302   1.273       .  A
O291        C303   1.275       .  A
O292        C301   1.274       .  A
O293        C303   1.269       .  A
O294        C302   1.273       .  A
O295        C304   1.271       .  A
O296        C305   1.274       .  A
O297        C304   1.275       .  A
O298        C305   1.271       .  A
O299        C306   1.272       .  A
O300        C306   1.270       .  A
C301        C380   1.437       .  S
C302        C371   1.433       .  S
C303        C427   1.441       .  S
C304        C390   1.441       .  S
C305        C416   1.441       .  S
C306        C447   1.429       .  S
Zn307       O311   1.973   1_565  S
Zn307       O312   2.034   1_554  S
Zn307       O316   2.044   1_565  S
Zn307       O323   2.012       .  S
Zn308       O311   1.961   1_566  S
Zn308       O313   2.022   1_565  S
Zn308       O315   2.013       .  S
Zn308       O319   2.024       .  S
Zn309       O311   1.959       .  S
Zn309       O314   2.011       .  S
Zn309       O317   2.006   1_554  S
Zn309       O320   2.007       .  S
Zn310       O311   1.973   1_565  S
Zn310       O318   2.034   1_565  S
Zn310       O321   2.039   1_554  S
Zn310       O322   2.017       .  S
O312        C324   1.274       .  A
O313        C325   1.273       .  A
O314        C326   1.270       .  A
O315        C324   1.272       .  A
O316        C326   1.275       .  A
O317        C325   1.271       .  A
O318        C327   1.274       .  A
O319        C328   1.272       .  A
O320        C327   1.271       .  A
O321        C328   1.274       .  A
O322        C329   1.272       .  A
O323        C329   1.272       .  A
C324        C424   1.438       .  S
C325        C367   1.433       .  S
C326        C393   1.442       .  S
C327        C397   1.437       .  S
C328        C385   1.443       .  S
C329        C454   1.432       .  S
Zn330       O334   1.964       .  S
Zn330       O335   2.019       .  S
Zn330       O339   2.016       .  S
Zn330       O346   2.017       .  S
Zn331       O334   1.956   1_556  S
Zn331       O336   2.009       .  S
Zn331       O338   1.998   1_556  S
Zn331       O342   2.004       .  S
Zn332       O334   1.975   1_556  S
Zn332       O337   2.042   1_556  S
Zn332       O340   2.052       .  S
Zn332       O343   2.014       .  S
Zn333       O334   1.977   1_556  S
Zn333       O341   2.018       .  S
Zn333       O344   2.048       .  S
Zn333       O345   2.048   1_556  S
O335        C347   1.272       .  A
O336        C348   1.270       .  A
O337        C349   1.275       .  A
O338        C347   1.270       .  A
O339        C349   1.272       .  A
O340        C348   1.275       .  A
O341        C350   1.273       .  A
O342        C351   1.270       .  A
O343        C350   1.273       .  A
O344        C351   1.275       .  A
O345        C352   1.275       .  A
O346        C352   1.272       .  A
C347        C443   1.430       .  S
C348        C383   1.444       .  S
C349        C418   1.442       .  S
C350        C366   1.432       .  S
C351        C430   1.441       .  S
C352        C388   1.443       .  S
C353        H354   1.112       .  S
C353        C359   1.535       .  S
C353        C358   1.533       .  S
C353        C357   1.534       .  S
C355        H356   1.112       .  S
C355        C361   1.533       .  S
C355        C360   1.533       .  S
C355        C362   1.533       .  S
C357        C360   1.367       .  D
C357        C375   1.441       .  S
C358        C361   1.366       .  D
C358        C404   1.441       .  S
C359        C362   1.367       .  D
C359        C374   1.443       .  S
C360        C370   1.442       .  S
C361        C410   1.440       .  S
C362        C363   1.441       .  S
C363        C364   1.203       .  T
C364        C365   1.408       .  S
C365        C366   1.203       .  T
C367        C368   1.204       .  T
C368        C369   1.409       .  S
C369        C370   1.204       .  T
C371        C372   1.204       .  T
C372        C373   1.410       .  S
C373        C374   1.204       .  T
C375        C376   1.203       .  T
C376        C377   1.408       .  S
C377        C378   1.204       .  T
C379        C380   1.208       .  T
C381        C382   1.208       .  T
C383        C384   1.211       .  T
C385        C386   1.211       .  T
C387        C388   1.211       .  T
C389        C390   1.210       .  T
C391        C392   1.209       .  T
C393        C394   1.210       .  T
C395        C396   1.209       .  T
C397        C398   1.208       .  T
C399        C400   1.210       .  T
C401        C402   1.203       .  T
C402        C403   1.408       .  S
C403        C404   1.203       .  T
C405        C406   1.207       .  T
C407        C408   1.202       .  T
C408        C409   1.407       .  S
C409        C410   1.202       .  T
C411        C412   1.209       .  T
C413        C414   1.210       .  T
C415        C416   1.209       .  T
C417        C418   1.210       .  T
C419        C420   1.210       .  T
C421        C422   1.211       .  T
C423        C424   1.208       .  T
C425        C426   1.209       .  T
C427        C428   1.210       .  T
C429        C430   1.210       .  T
C431        C432   1.210       .  T
C433        C434   1.209       .  T
C435        C436   1.204       .  T
C436        C437   1.409       .  S
C437        C438   1.204       .  T
C439        C440   1.202       .  T
C440        C441   1.407       .  S
C441        C442   1.203       .  T
C443        C444   1.203       .  T
C444        C445   1.407       .  S
C445        C446   1.203       .  T
C447        C448   1.202       .  T
C448        C449   1.407       .  S
C449        C450   1.202       .  T
C451        C452   1.203       .  T
C452        C453   1.408       .  S
C453        C454   1.204       .  T
C455        C456   1.204       .  T
C456        C457   1.410       .  S
C457        C458   1.204       .  T
