geometry optimzed in LAMMPS
_audit_creation_date              2020-11-30 
_audit_creation_method            'lammps2cif' 
_symmetry_space_group_name_H-M    'P1' 
_symmetry_Int_Tables_number       1 
_symmetry_cell_setting            triclinic 
loop_ 
_symmetry_equiv_pos_as_xyz 
  x,y,z 
_cell_length_a                    46.85161354 
_cell_length_b                    25.364299965154526 
_cell_length_c                    27.4131260067675 
_cell_angle_alpha                 89.81895196547451 
_cell_angle_beta                  90.43638397105556 
_cell_angle_gamma                 89.75913067301097 
loop_ 
_atom_site_label 
_atom_site_type_symbol 
_atom_site_fract_x 
_atom_site_fract_y 
_atom_site_fract_z 
_atom_site_charge 
N1          N  0.09692122  0.84547184  0.40747900    -0.02400
C2          C  0.11878482  0.81004148  0.40394320     0.00200
C3          C  0.13095548  0.80132069  0.44938156    -0.22700
C4          C  0.11622965  0.83171015  0.48197943    -0.22900
C5          C  0.09557257  0.85850877  0.45556343     0.00100
H6          H  0.14817090  0.77422927  0.45811009     0.13900
H7          H  0.11916234  0.83184947  0.52115313     0.13900
N8          N  0.37028625  0.81445976  0.04201081    -0.02400
C9          C  0.35096653  0.77640852  0.05216248     0.00200
C10         C  0.33862001  0.75781615  0.00970960    -0.22700
C11         C  0.35028720  0.78597959  0.97209095    -0.22900
C12         C  0.36941236  0.82084101  0.99284796     0.00100
H13         H  0.32252821  0.72748669  0.00660758     0.13900
H14         H  0.34550319  0.78134664  0.93369372     0.13900
O15         O  0.01371451  0.97139008  0.79483715    -0.77400
C16         C  0.43447191  0.90337056  0.83593921     0.83700
O17         O  0.01299817  0.80036268  0.71526782    -0.78500
O18         O  0.41141345  0.85428259  0.69020125    -0.80000
O19         O  0.45317943  0.02390371  0.65683117    -0.79800
O20         O  0.01349986  0.02462750  0.73009672    -0.78400
Zn21       Zn  0.49070562  0.90756416  0.78038970     1.55700
O22         O  0.41546468  0.98404673  0.68944636    -0.79800
Cd23       Cd  0.48787531  0.97904810  0.68238401     1.59700
Cd24       Cd  0.48326253  0.84821798  0.67825867     1.59600
O25         O  0.01132971  0.95665208  0.62055895    -0.79800
O26         O  0.47352658  0.91338970  0.71647348    -1.90300
Cd27       Cd  0.43123028  0.91752160  0.72451841     1.59900
O28         O  0.00231381  0.87053137  0.61339666    -0.79800
O29         O  0.41970384  0.91448837  0.79787827    -0.78400
C30         C  0.02517039  0.80836514  0.75632783     0.84100
C31         C  0.02159495  0.01349029  0.77362619     0.83800
O32         O  0.46150147  0.89842900  0.83366612    -0.77400
C33         C  0.42622120  0.02007760  0.66271323     0.84600
O34         O  0.01842423  0.84721042  0.78318844    -0.77500
C35         C  0.01333517  0.91307797  0.59733734     0.84700
C36         C  0.42029313  0.81368083  0.66744063     0.85000
O37         O  0.44688271  0.80480565  0.66146380    -0.79900
N38         N  0.12165463  0.66850267  0.89078690    -0.02400
C39         C  0.10231587  0.70727378  0.88089546     0.00200
C40         C  0.09576123  0.73486646  0.92274062    -0.22700
C41         C  0.11124111  0.71230231  0.95993332    -0.22900
C42         C  0.12672078  0.67166104  0.93960085     0.00100
H43         H  0.08096403  0.76755155  0.92585250     0.13900
H44         H  0.11124247  0.72413846  0.99783270     0.13900
N45         N  0.33493884  0.64519063  0.53725031    -0.02400
C46         C  0.35368354  0.68542033  0.54395569     0.00200
C47         C  0.36473900  0.70179137  0.49988915    -0.22700
C48         C  0.35278887  0.67070800  0.46464973    -0.22900
C49         C  0.33471916  0.63638263  0.48824628     0.00100
H50         H  0.38025047  0.73267582  0.49420433     0.13900
H51         H  0.35654614  0.67325907  0.42580253     0.13900
O52         O  0.18242976  0.51009983  0.29526987    -0.77400
C53         C  0.26813910  0.55094303  0.33651825     0.83700
O54         O  0.19311089  0.68731640  0.23357041    -0.78500
O55         O  0.29143802  0.61404950  0.19728665    -0.80000
O56         O  0.23762721  0.45528990  0.15533793    -0.79800
O57         O  0.17695582  0.46773885  0.22482889    -0.78400
Zn58       Zn  0.21051061  0.56778209  0.28539316     1.55700
O59         O  0.27966232  0.48611250  0.18138542    -0.79800
Cd60       Cd  0.20702243  0.50876521  0.18160494     1.59700
Cd61       Cd  0.21993312  0.63818248  0.19135667     1.59600
O62         O  0.18777844  0.54295405  0.11961807    -0.79800
O63         O  0.22632334  0.56608078  0.22072632    -1.90300
Cd64       Cd  0.26851585  0.55081500  0.22449046     1.59900
O65         O  0.20089717  0.62756970  0.12362087    -0.79800
O66         O  0.28159702  0.54162162  0.29708681    -0.78400
C67         C  0.18228956  0.67724792  0.27518698     0.84100
C68         C  0.17048689  0.47469129  0.26965090     0.83800
O69         O  0.24152734  0.56162712  0.33597156    -0.77400
C70         C  0.26490240  0.45304487  0.15697971     0.84600
O71         O  0.18803802  0.63416287  0.29719194    -0.77500
C72         C  0.18885685  0.58939268  0.10131081     0.84700
C73         C  0.28479846  0.65982564  0.18145038     0.85000
O74         O  0.25884012  0.67538880  0.17930916    -0.79900
N75         N  0.09999395  0.35167170  0.39571261    -0.02400
C76         C  0.07723400  0.31965358  0.38793173     0.00200
C77         C  0.06207939  0.31263735  0.43044429    -0.22700
C78         C  0.07573715  0.34126925  0.46580003    -0.22900
C79         C  0.09871103  0.36522298  0.44368733     0.00100
H80         H  0.04378617  0.28734671  0.43558781     0.13900
H81         H  0.07058781  0.34164967  0.50419618     0.13900
N82         N  0.31535031  0.28699756  0.04290519    -0.02400
C83         C  0.32982058  0.24193736  0.05446153     0.00200
C84         C  0.33438610  0.21218593  0.01302985    -0.22700
C85         C  0.32271421  0.23948657  0.97466990    -0.22900
C86         C  0.31144565  0.28520392  0.99368645     0.00100
H87         H  0.34688022  0.17633096  0.01043657     0.13900
H88         H  0.32323661  0.22817322  0.93664980     0.13900
O89         O  0.23264046  0.39063536  0.82886045    -0.77400
C90         C  0.17494322  0.51064351  0.77043043     0.83700
O91         O  0.18170370  0.29216175  0.71537136    -0.78500
O92         O  0.18323603  0.45210676  0.61698345    -0.80000
O93         O  0.28111880  0.46730133  0.68332822    -0.79800
O94         O  0.27512672  0.39694335  0.79363871    -0.78400
Zn95       Zn  0.20269034  0.40115109  0.77675415     1.55700
O96         O  0.24330648  0.51316020  0.65587437    -0.79800
Cd97       Cd  0.26374866  0.40200269  0.71937748     1.59700
Cd98       Cd  0.20840710  0.34114766  0.67534767     1.59600
O99         O  0.28148038  0.33527781  0.68502635    -0.79800
O100        O  0.22067295  0.40445615  0.71320034    -1.90300
Cd101      Cd  0.20751181  0.47130564  0.67941508     1.59900
O102        O  0.24292105  0.29570629  0.65534663    -0.79800
O103        O  0.18343261  0.51948100  0.72689312    -0.78400
C104        C  0.17044433  0.29888788  0.75705615     0.84100
C105        C  0.25980856  0.38994892  0.83159602     0.83800
O106        O  0.18101814  0.46751681  0.79207714    -0.77400
C107        C  0.27028666  0.50605610  0.65946829     0.84600
O108        O  0.17554027  0.33971763  0.78253539    -0.77500
C109        C  0.26989710  0.29762132  0.66132496     0.84700
C110        C  0.17877518  0.40840535  0.59500859     0.85000
O111        O  0.18764822  0.36450867  0.61223743    -0.79900
N112        N  0.09588531  0.13152122  0.89914645    -0.02400
C113        C  0.12068097  0.15690242  0.88972155     0.02600
C114        C  0.13560958  0.16584864  0.93255442    -0.22700
C115        C  0.11971132  0.14468658  0.96961424    -0.22900
C116        C  0.09553188  0.12374566  0.94823798     0.00100
H117        H  0.15523352  0.18781048  0.93662130     0.13900
H118        H  0.12462566  0.14637572  0.00821890     0.13900
N119        N  0.35217608  0.12925655  0.52872299    -0.02400
C120        C  0.32681345  0.15504063  0.53313255     0.00200
C121        C  0.31415113  0.16153747  0.48777909    -0.22700
C122        C  0.33179041  0.13801125  0.45455947    -0.22900
C123        C  0.35484125  0.11817722  0.48049181     0.00100
H124        H  0.29474874  0.18311401  0.47941646     0.13900
H125        H  0.32864515  0.13707190  0.41543313     0.13900
O126        O  0.46359822  0.07618671  0.33764522    -0.77400
C127        C  0.02980660  0.97206719  0.27581340     0.83700
O128        O  0.00810806  0.18706789  0.21949498    -0.78500
O129        O  0.01624516  0.02956991  0.12377587    -0.80000
O130        O  0.42141679  0.99105590  0.18853996    -0.79800
O131        O  0.42404727  0.04983816  0.29996655    -0.78400
Zn132      Zn  0.49345310  0.07318224  0.28378291     1.55700
O133        O  0.46118873  0.95511806  0.15897227    -0.79800
Cd134      Cd  0.43531983  0.05518492  0.22770099     1.59700
Cd135      Cd  0.48241277  0.13377366  0.18055073     1.59600
O136        O  0.41234660  0.11721632  0.19953439    -0.79800
O137        O  0.47685940  0.06664048  0.21937906    -1.90300
Cd138      Cd  0.49389613  0.00358721  0.18526651     1.59900
O139        O  0.44317412  0.17043425  0.16298306    -0.79800
O140        O  0.02137889  0.96060200  0.23262339    -0.78400
C141        C  0.02019289  0.18057726  0.26101207     0.84100
C142        C  0.43723179  0.06394288  0.33855522     0.83800
O143        O  0.02062818  0.01305169  0.29758415    -0.77400
C144        C  0.43400725  0.95671449  0.16254865     0.84600
O145        O  0.01611007  0.13930895  0.28653576    -0.77500
C146        C  0.41760061  0.15801551  0.17408747     0.84700
C147        C  0.01692036  0.07349568  0.10072079     0.85000
O148        O  0.00403868  0.11452919  0.11662776    -0.79900
C149        C  0.40561411  0.12019157  0.45460280    -0.11200
C150        C  0.37954795  0.09320088  0.45607722     0.05800
C151        C  0.37524797  0.05035259  0.42429472    -0.06500
C152        C  0.39555097  0.03858608  0.38875884    -0.07200
C153        C  0.42051374  0.06862853  0.38422836    -0.01700
C154        C  0.42629023  0.10772258  0.41957927     0.05100
N155        N  0.45159757  0.13886000  0.41745746     0.67600
H156        H  0.40892745  0.15418574  0.47735919     0.16500
H157        H  0.39097734  0.00757760  0.36287542     0.16200
N158        N  0.34945962  0.02049469  0.42554695     0.75300
O159        O  0.45137276  0.18175827  0.39402101    -0.38200
O160        O  0.47217294  0.12850610  0.44591649    -0.38100
O161        O  0.33036406  0.02881110  0.39370356    -0.38800
O162        O  0.34880097  0.97850955  0.45029634    -0.38900
C163        C  0.07619210  0.05825725  0.00683448    -0.11200
C164        C  0.07156901  0.10294418  0.97752177     0.05800
C165        C  0.04672102  0.13327557  0.98461775    -0.06500
C166        C  0.02828053  0.12112089  0.02314581    -0.07200
C167        C  0.03386416  0.07845583  0.05488614    -0.01700
C168        C  0.05725102  0.04492984  0.04434625     0.05100
N169        N  0.06308408  0.99887262  0.07291053     0.67600
H170        H  0.09534239  0.03487254  0.00204301     0.16500
H171        H  0.01022016  0.14687190  0.02961090     0.16200
N172        N  0.04139486  0.17965868  0.95621374     0.75300
O173        O  0.05299964  0.95512244  0.05957675    -0.38200
O174        O  0.08237605  0.99997425  0.10524875    -0.38100
O175        O  0.02131586  0.17988047  0.92528384    -0.38800
O176        O  0.05256241  0.22272707  0.96888583    -0.38900
C177        C  0.27323138  0.20982282  0.62132771    -0.11200
C178        C  0.28744413  0.25498828  0.63842288     0.05800
C179        C  0.31695766  0.25987908  0.62848204    -0.06500
C180        C  0.33060581  0.22292030  0.59816931    -0.07200
C181        C  0.31537272  0.18107753  0.57727646    -0.01700
C182        C  0.28669004  0.17357316  0.59071746     0.05100
N183        N  0.27028673  0.13101526  0.57122739     0.67600
H184        H  0.25087052  0.20391676  0.62934740     0.16500
H185        H  0.35254856  0.22953988  0.58766793     0.16200
N186        N  0.33279734  0.30448265  0.64479001     0.75300
O187        O  0.26488385  0.09200887  0.59822294    -0.38200
O188        O  0.25515032  0.13875617  0.53359416    -0.38100
O189        O  0.34573703  0.30235096  0.68528461    -0.38800
O190        O  0.33924992  0.33992432  0.61450867    -0.38900
C191        C  0.16641801  0.20756062  0.78775323    -0.11200
C192        C  0.15322091  0.25643029  0.77897730     0.05800
C193        C  0.12614762  0.26640634  0.79911621    -0.06500
C194        C  0.11382194  0.22946972  0.83067858    -0.07200
C195        C  0.12846449  0.18309327  0.84351031    -0.01700
C196        C  0.15453009  0.17135863  0.82049865     0.05100
N197        N  0.17040224  0.12507775  0.83331015     0.67600
H198        H  0.18729652  0.19950692  0.77276235     0.16500
H199        H  0.09412389  0.23951047  0.84887671     0.16200
N200        N  0.11179688  0.31532804  0.79046276     0.75300
O201        O  0.16868350  0.08488420  0.80648282    -0.38200
O202        O  0.19045076  0.12824294  0.86414964    -0.38100
O203        O  0.09221366  0.31769791  0.75867457    -0.38800
O204        O  0.11416621  0.35188678  0.82127628    -0.38900
C205        C  0.31532164  0.35091476  0.92746268    -0.11200
C206        C  0.29812309  0.32560753  0.96191414     0.05800
C207        C  0.26832646  0.32970393  0.95769771    -0.06500
C208        C  0.25617412  0.35529049  0.91704317    -0.07200
C209        C  0.27337668  0.37626759  0.87960547    -0.01700
C210        C  0.30330025  0.37658835  0.88682100     0.05100
N211        N  0.32189760  0.40078619  0.85236772     0.67600
H212        H  0.33834712  0.34806931  0.93068016     0.16500
H213        H  0.23316313  0.35480073  0.91302824     0.16200
N214        N  0.25022249  0.30318810  0.99152089     0.75300
O215        O  0.32633120  0.44975404  0.85462308    -0.38200
O216        O  0.33749693  0.37244376  0.82569946    -0.38100
O217        O  0.23629634  0.32934124  0.02241800    -0.38800
O218        O  0.24807186  0.25361657  0.99051130    -0.38900
C219        C  0.37147056  0.26061740  0.10739536    -0.11200
C220        C  0.34664144  0.23097579  0.09916115     0.05800
C221        C  0.34376734  0.18188529  0.12278814    -0.06500
C222        C  0.36633593  0.16164271  0.15076329    -0.07200
C223        C  0.39263929  0.18808553  0.15417101    -0.01700
C224        C  0.39459442  0.23937143  0.13413425     0.05100
N225        N  0.42026494  0.26925822  0.13832136     0.67600
H226        H  0.37410413  0.29802208  0.08883069     0.16500
H227        H  0.36397099  0.12250008  0.16604679     0.16200
N228        N  0.31938372  0.14924317  0.11430789     0.75300
O229        O  0.43812593  0.26838257  0.10410733    -0.38200
O230        O  0.42233813  0.30398667  0.17099277    -0.38100
O231        O  0.31931949  0.11824672  0.07839163    -0.38800
O232        O  0.30221277  0.14108202  0.14871346    -0.38900
C233        C  0.13661477  0.43738271  0.54549993    -0.11200
C234        C  0.16175775  0.40728267  0.54912577     0.05800
C235        C  0.16814213  0.37111409  0.51155878    -0.06500
C236        C  0.14850246  0.36264733  0.47364775    -0.07200
C237        C  0.12215360  0.38882471  0.47276493    -0.01700
C238        C  0.11667639  0.42795684  0.50803659     0.05100
N239        N  0.09024108  0.45627531  0.50786462     0.67600
H240        H  0.13140731  0.46543932  0.57375323     0.16500
H241        H  0.15285120  0.33216936  0.44735663     0.16200
N242        N  0.19387342  0.34064883  0.51265267     0.75300
O243        O  0.07087945  0.44332682  0.53726603    -0.38200
O244        O  0.08852596  0.49993573  0.48584063    -0.38100
O245        O  0.19296387  0.29260646  0.52463115    -0.38800
O246        O  0.21593597  0.35846246  0.49241086    -0.38900
C247        C  0.04961737  0.30932687  0.31100728    -0.11200
C248        C  0.07032759  0.28935659  0.34356470     0.05800
C249        C  0.07738833  0.23527844  0.34197564    -0.06500
C250        C  0.06273470  0.20200484  0.31015619    -0.07200
C251        C  0.03975222  0.22056971  0.28174856    -0.01700
C252        C  0.03397645  0.27526063  0.28048617     0.05100
N253        N  0.01009641  0.29582022  0.25367309     0.67600
H254        H  0.04340480  0.35042191  0.31316175     0.16500
H255        H  0.06755983  0.16019631  0.31130229     0.16200
N256        N  0.09649982  0.21202005  0.37700152     0.75300
O257        O  0.98520039  0.28948972  0.26989580    -0.38200
O258        O  0.01413780  0.32809242  0.21931956    -0.38100
O259        O  0.08747359  0.20195550  0.41926311    -0.38800
O260        O  0.11866652  0.18874655  0.36231936    -0.38900
C261        C  0.15179662  0.38654652  0.29536652    -0.11200
C262        C  0.14881985  0.44163927  0.29422373     0.05800
C263        C  0.12786873  0.46547121  0.32370900    -0.06500
C264        C  0.11174623  0.43485209  0.35571047    -0.07200
C265        C  0.11583073  0.38023959  0.35922319    -0.01700
C266        C  0.13558762  0.35571000  0.32779616     0.05100
N267        N  0.14099246  0.30038089  0.33062927     0.67600
H268        H  0.16807908  0.36778514  0.27355203     0.16500
H269        H  0.09616035  0.45391718  0.37873384     0.16200
N270        N  0.12292682  0.52108201  0.32193974     0.75300
O271        O  0.13712522  0.27236865  0.29321820    -0.38200
O272        O  0.15603856  0.28248653  0.36531605    -0.38100
O273        O  0.10560220  0.53969639  0.29083712    -0.38800
O274        O  0.13090590  0.54940894  0.35720119    -0.38900
C275        C  0.27377614  0.35784884  0.14038708    -0.11200
C276        C  0.27976627  0.41068437  0.12956552     0.05800
C277        C  0.29982455  0.42188935  0.09270030    -0.06500
C278        C  0.31209846  0.38058448  0.06583908    -0.07200
C279        C  0.30522904  0.32784756  0.07531299    -0.01700
C280        C  0.28659267  0.31654867  0.11423946     0.05100
N281        N  0.27983273  0.26350129  0.12707484     0.67600
H282        H  0.25889056  0.34856206  0.16917668     0.16500
H283        H  0.32661708  0.38972874  0.03650620     0.16200
N284        N  0.30726650  0.47491723  0.08067099     0.75300
O285        O  0.28539538  0.24726424  0.16967402    -0.38200
O286        O  0.26310272  0.23737037  0.10029362    -0.38100
O287        O  0.33326900  0.48738251  0.07835423    -0.38800
O288        O  0.28866051  0.50531210  0.06231449    -0.38900
C289        C  0.32655034  0.55790631  0.57266644    -0.11200
C290        C  0.32139562  0.61236922  0.57347429     0.05800
C291        C  0.30125763  0.63242573  0.60682165    -0.06500
C292        C  0.28506142  0.59743142  0.63534401    -0.07200
C293        C  0.28946949  0.54265304  0.63288798    -0.01700
C294        C  0.31117361  0.52325748  0.60230926     0.05100
N295        N  0.31698932  0.46811784  0.59908921     0.67600
H296        H  0.34223790  0.54210642  0.54780345     0.16500
H297        H  0.26879475  0.61309987  0.65918309     0.16200
N298        N  0.29640908  0.68781556  0.61143989     0.75300
O299        O  0.30268427  0.44008878  0.56994163    -0.38200
O300        O  0.33981370  0.45009631  0.61740336    -0.38100
O301        O  0.27861494  0.71038339  0.58358204    -0.38800
O302        O  0.30402036  0.71058961  0.65023510    -0.38900
C303        C  0.27055670  0.58226959  0.42228061    -0.11200
C304        C  0.28397062  0.55562693  0.38367358     0.05800
C305        C  0.31341336  0.54408404  0.38806663    -0.06500
C306        C  0.32933729  0.56627357  0.42627420    -0.07200
C307        C  0.31639368  0.59927809  0.46074965    -0.01700
C308        C  0.28650359  0.60489879  0.46010618     0.05100
N309        N  0.27245721  0.64031595  0.49248947     0.67600
H310        H  0.24793661  0.59110277  0.42042360     0.16500
H311        H  0.35228340  0.56076004  0.42703987     0.16200
N312        N  0.32774418  0.51228841  0.35287257     0.75300
O313        O  0.25351612  0.62286755  0.52069120    -0.38200
O314        O  0.27370065  0.68922172  0.48421530    -0.38100
O315        O  0.34512174  0.53326604  0.32379055    -0.38800
O316        O  0.32712151  0.46274113  0.35696215    -0.38900
C317        C  0.12906180  0.57657896  0.86724712    -0.11200
C318        C  0.13347942  0.63008984  0.85776123     0.05800
C319        C  0.14963656  0.64477455  0.81650217    -0.06500
C320        C  0.16172905  0.60530725  0.78677992    -0.07200
C321        C  0.15845974  0.55145371  0.79782249    -0.01700
C322        C  0.14109589  0.53751001  0.83785802     0.05100
N323        N  0.13437912  0.48376430  0.84808066     0.67600
H324        H  0.11583387  0.56505442  0.89765863     0.16500
H325        H  0.17501209  0.61687190  0.75642252     0.16200
N326        N  0.15517176  0.69914259  0.80563951     0.75300
O327        O  0.14617807  0.46074670  0.88383477    -0.38200
O328        O  0.11248049  0.46377825  0.82865121    -0.38100
O329        O  0.16197559  0.73068057  0.83925902    -0.38800
O330        O  0.15574191  0.71478250  0.76189044    -0.38900
C331        C  0.18782438  0.63994693  0.02320639    -0.11200
C332        C  0.17567689  0.60068417  0.05282932     0.05800
C333        C  0.14989227  0.57707474  0.03741924    -0.06500
C334        C  0.13525084  0.59717188  0.99647905    -0.07200
C335        C  0.14645896  0.63904901  0.96927072    -0.01700
C336        C  0.17358816  0.65869068  0.98145961     0.05100
N337        N  0.18592812  0.70045087  0.95370587     0.67600
H338        H  0.20795645  0.65773505  0.03360047     0.16500
H339        H  0.11412233  0.58244504  0.98795287     0.16200
N340        N  0.13699737  0.53603561  0.06528019     0.75300
O341        O  0.18045878  0.74786597  0.96398669    -0.38200
O342        O  0.20224201  0.68987292  0.91863235    -0.38100
O343        O  0.11670985  0.54684909  0.09360317    -0.38800
O344        O  0.14216714  0.48855471  0.05482203    -0.38900
C345        C  0.40659191  0.72338807  0.63918530    -0.11200
C346        C  0.39921786  0.77676375  0.64552067     0.05800
C347        C  0.37276219  0.79497043  0.62664930    -0.06500
C348        C  0.35550528  0.76104813  0.59917959    -0.07200
C349        C  0.36386956  0.70891722  0.59001241    -0.01700
C350        C  0.38906216  0.68945674  0.61195593     0.05100
N351        N  0.39868475  0.63705639  0.60205536     0.67600
H352        H  0.42668073  0.70849043  0.65357598     0.16500
H353        H  0.33686391  0.77713483  0.58064691     0.16200
N354        N  0.36487125  0.84939058  0.62925806     0.75300
O355        O  0.41827785  0.62935694  0.57153090    -0.38200
O356        O  0.38647037  0.59824008  0.62165484    -0.38100
O357        O  0.37346565  0.88102841  0.59697128    -0.38800
O358        O  0.34536222  0.86359831  0.65789562    -0.38900
C359        C  0.04213960  0.72299345  0.79197178    -0.11200
C360        C  0.04837060  0.77348889  0.77394141     0.05800
C361        C  0.07572250  0.79466732  0.78212431    -0.06500
C362        C  0.09525764  0.76799465  0.81212073    -0.07200
C363        C  0.08818839  0.71985095  0.83396505    -0.01700
C364        C  0.06197199  0.69595460  0.82178907     0.05100
N365        N  0.05383979  0.64758218  0.84451643     0.67600
H366        H  0.02107652  0.70653421  0.78635651     0.16500
H367        H  0.11488669  0.78764413  0.82229238     0.16200
N368        N  0.08296533  0.84566703  0.76386019     0.75300
O369        O  0.03885012  0.64826174  0.88255869    -0.38200
O370        O  0.06371732  0.60444020  0.82911316    -0.38100
O371        O  0.08158916  0.88511598  0.79165999    -0.38800
O372        O  0.09565949  0.84961365  0.72360175    -0.38900
C373        C  0.37820791  0.03725286  0.62662938    -0.11200
C374        C  0.40629538  0.05496198  0.63452935     0.05800
C375        C  0.41510159  0.10165925  0.61064473    -0.06500
C376        C  0.39647977  0.12749519  0.57784567    -0.07200
C377        C  0.36936745  0.10701192  0.56745170    -0.01700
C378        C  0.36001616  0.06220694  0.59297905     0.05100
N379        N  0.33271241  0.03953541  0.58294227     0.67600
H380        H  0.37083615  0.00152326  0.64402573     0.16500
H381        H  0.40336014  0.16307898  0.55989977     0.16200
N382        N  0.44285077  0.12319111  0.61884955     0.75300
O383        O  0.32794589  0.01885276  0.54190949    -0.38200
O384        O  0.31581465  0.03066142  0.61759630    -0.38100
O385        O  0.46132157  0.12065940  0.58566695    -0.38800
O386        O  0.44711177  0.15271312  0.65511971    -0.38900
C387        C  0.06359787  0.02144138  0.82757986    -0.11200
C388        C  0.04198195  0.04721645  0.80084862     0.05800
C389        C  0.03947364  0.10256034  0.80440514    -0.06500
C390        C  0.05775131  0.13053400  0.83612418    -0.07200
C391        C  0.07864670  0.10392246  0.86390846    -0.01700
C392        C  0.08202226  0.04920897  0.85823435     0.05100
N393        N  0.10434312  0.02128854  0.88319352     0.67600
H394        H  0.06616188  0.97926337  0.82480391     0.16500
H395        H  0.05511993  0.17257975  0.84013748     0.16200
N396        N  0.01739067  0.13032427  0.77882059     0.75300
O397        O  0.09809210  0.98648378  0.91425371    -0.38200
O398        O  0.12933191  0.02267754  0.86644034    -0.38100
O399        O  0.99440815  0.14114474  0.80036992    -0.38800
O400        O  0.02284665  0.15236111  0.73865699    -0.38900
C401        C  0.37464044  0.89845897  0.08447654    -0.11200
C402        C  0.38508256  0.84762264  0.07608450     0.05800
C403        C  0.41102941  0.83171112  0.09784556    -0.06500
C404        C  0.42673935  0.86760947  0.12604133    -0.07200
C405        C  0.41642136  0.91887180  0.13433623    -0.01700
C406        C  0.38973095  0.93384819  0.11389571     0.05100
N407        N  0.37833612  0.98572974  0.12036256     0.67600
H408        H  0.35486021  0.91088442  0.06729548     0.16500
H409        H  0.44693451  0.85523612  0.14181584     0.16200
N410        N  0.42181488  0.77949563  0.09119042     0.75300
O411        O  0.38562411  0.02226323  0.09175961    -0.38200
O412        O  0.35729527  0.99255254  0.14814153    -0.38100
O413        O  0.44417318  0.77252144  0.06664021    -0.38800
O414        O  0.41343302  0.74320303  0.11910751    -0.38900
C415        C  0.41682884  0.84825330  0.96200436    -0.11200
C416        C  0.38728433  0.85643369  0.96306717     0.05800
C417        C  0.37437509  0.88821843  0.92689983    -0.06500
C418        C  0.39033576  0.90546846  0.88684628    -0.07200
C419        C  0.41958265  0.89322092  0.88308226    -0.01700
C420        C  0.43312003  0.86702006  0.92286523     0.05100
N421        N  0.46300903  0.85552494  0.92272656     0.67600
H422        H  0.42684846  0.82407555  0.98915311     0.16500
H423        H  0.37964216  0.92718965  0.85818846     0.16200
N424        N  0.34468801  0.90144001  0.92970802     0.75300
O425        O  0.48009347  0.88637370  0.94393420    -0.38200
O426        O  0.47159914  0.81062208  0.90948175    -0.38100
O427        O  0.33520364  0.92472934  0.96689330    -0.38800
O428        O  0.32781667  0.88909569  0.89556552    -0.38900
C429        C  0.35025283  0.70509959  0.11266820    -0.11200
C430        C  0.34223785  0.75669412  0.10042942     0.05800
C431        C  0.31877046  0.77969484  0.12410296    -0.06500
C432        C  0.30142548  0.74865065  0.15410553    -0.07200
C433        C  0.30747239  0.69484181  0.16170447    -0.01700
C434        C  0.33351588  0.67437541  0.14373436     0.05100
N435        N  0.34144824  0.62051824  0.15100153     0.67600
H436        H  0.36791851  0.68658699  0.09394865     0.16500
H437        H  0.28214608  0.76589690  0.16878370     0.16200
N438        N  0.31054732  0.83288371  0.11387881     0.75300
O439        O  0.33463400  0.58694042  0.11922594    -0.38200
O440        O  0.36011979  0.60890445  0.18270375    -0.38100
O441        O  0.29075771  0.84210855  0.08353268    -0.38800
O442        O  0.31893958  0.86917776  0.14182155    -0.38900
C443        C  0.04779262  0.88243433  0.30256278    -0.11200
C444        C  0.05056284  0.93772763  0.30268205     0.05800
C445        C  0.07129511  0.96057705  0.33364606    -0.06500
C446        C  0.08680284  0.92912769  0.36645983    -0.07200
C447        C  0.08271098  0.87452201  0.36888136    -0.01700
C448        C  0.06361899  0.85068515  0.33562930     0.05100
N449        N  0.05874886  0.79508196  0.33712375     0.67600
H450        H  0.03198667  0.86419169  0.27909090     0.16500
H451        H  0.10203510  0.94753475  0.39091533     0.16200
N452        N  0.07712362  0.01584280  0.33167839     0.75300
O453        O  0.05057809  0.77342882  0.37605918    -0.38200
O454        O  0.06046695  0.76815818  0.29861760    -0.38100
O455        O  0.07116498  0.04476096  0.36759281    -0.38800
O456        O  0.09235629  0.03387936  0.29777562    -0.38900
C457        C  0.04471487  0.86138551  0.47933286    -0.11200
C458        C  0.07151638  0.88569073  0.48004956     0.05800
C459        C  0.07655768  0.92667392  0.51364057    -0.06500
C460        C  0.05607280  0.93888107  0.54907952    -0.07200
C461        C  0.03056786  0.91012843  0.55200777    -0.01700
C462        C  0.02429632  0.87321239  0.51490878     0.05100
N463        N  0.49775228  0.84562700  0.51404434     0.67600
H464        H  0.04048440  0.83025552  0.45393320     0.16500
H465        H  0.06113032  0.96785392  0.57647705     0.16200
N466        N  0.10309698  0.95421706  0.51394966     0.75300
O467        O  0.47652610  0.86594583  0.49238067    -0.38200
O468        O  0.49703803  0.79767263  0.52633348    -0.38100
O469        O  0.10502841  0.99746953  0.49138117    -0.38800
O470        O  0.12240751  0.94102356  0.54395981    -0.38900
C471        C  0.14661204  0.80187746  0.32659213    -0.11200
C472        C  0.12802183  0.77926227  0.36074466     0.05800
C473        C  0.12494498  0.72391782  0.36135272    -0.06500
C474        C  0.14158222  0.69243545  0.33083477    -0.07200
C475        C  0.16194898  0.71432646  0.29945329    -0.01700
C476        C  0.16342532  0.76991431  0.29577341     0.05100
N477        N  0.18349970  0.79445772  0.26415106     0.67600
H478        H  0.14967871  0.84414073  0.32636476     0.16500
H479        H  0.13946019  0.65013686  0.33354055     0.16200
N480        N  0.10655956  0.69851787  0.39554109     0.75300
O481        O  0.17552494  0.80992225  0.22241860    -0.38200
O482        O  0.20732520  0.80911029  0.28090960    -0.38100
O483        O  0.08373025  0.67788192  0.38031964    -0.38800
O484        O  0.11647616  0.68452530  0.43653144    -0.38900
N485        N  0.59692109  0.84547176  0.40747910    -0.02400
C486        C  0.61878466  0.81004134  0.40394330     0.00200
C487        C  0.63095530  0.80132049  0.44938167    -0.22700
C488        C  0.61622948  0.83170997  0.48197954    -0.22900
C489        C  0.59557244  0.85850866  0.45556354     0.00100
H490        H  0.64817071  0.77422903  0.45811020     0.13900
H491        H  0.61916216  0.83184927  0.52115325     0.13900
N492        N  0.87028622  0.81445971  0.04201072    -0.02400
C493        C  0.85096643  0.77640860  0.05216240     0.00200
C494        C  0.83861985  0.75781632  0.00970954    -0.22700
C495        C  0.85028708  0.78597969  0.97209088    -0.22900
C496        C  0.86941232  0.82084097  0.99284787     0.00100
H497        H  0.82252800  0.72748696  0.00660753     0.13900
H498        H  0.84550305  0.78134678  0.93369365     0.13900
O499        O  0.51371451  0.97139014  0.79483719    -0.77400
C500        C  0.93447196  0.90337034  0.83593910     0.83700
O501        O  0.51299805  0.80036275  0.71526784    -0.78500
O502        O  0.91141355  0.85428237  0.69020117    -0.80000
O503        O  0.95317947  0.02390353  0.65683105    -0.79800
O504        O  0.51349983  0.02462761  0.73009680    -0.78400
Zn505      Zn  0.99070567  0.90756406  0.78038963     1.55700
O506        O  0.91546472  0.98404651  0.68944619    -0.79800
Cd507      Cd  0.98787537  0.97904796  0.68238392     1.59700
Cd508      Cd  0.98326262  0.84821784  0.67825862     1.59600
O509        O  0.51132964  0.95665222  0.62055904    -0.79800
O510        O  0.97352665  0.91338956  0.71647339    -1.90300
Cd511      Cd  0.93123034  0.91752143  0.72451831     1.59900
O512        O  0.50231371  0.87053152  0.61339672    -0.79800
O513        O  0.91970389  0.91448819  0.79787816    -0.78400
C514        C  0.52517027  0.80836517  0.75632784     0.84100
C515        C  0.52159494  0.01349035  0.77362625     0.83800
O516        O  0.96150152  0.89842880  0.83366602    -0.77400
C517        C  0.92622124  0.02007739  0.66271307     0.84600
O518        O  0.51842414  0.84721045  0.78318848    -0.77500
C519        C  0.51333508  0.91307810  0.59733740     0.84700
C520        C  0.92029324  0.81368061  0.66744057     0.85000
O521        O  0.94688282  0.80480545  0.66146374    -0.79900
N522        N  0.62165443  0.66850246  0.89078690    -0.02400
C523        C  0.60231561  0.70727348  0.88089546     0.00200
C524        C  0.59576089  0.73486606  0.92274064    -0.22700
C525        C  0.61124076  0.71230194  0.95993335    -0.22900
C526        C  0.62672052  0.67166079  0.93960088     0.00100
H527        H  0.58096364  0.76755108  0.92585252     0.13900
H528        H  0.61124208  0.72413805  0.99783274     0.13900
N529        N  0.83493889  0.64519045  0.53725028    -0.02400
C530        C  0.85368360  0.68542015  0.54395568     0.00200
C531        C  0.86473904  0.70179123  0.49988914    -0.22700
C532        C  0.85278891  0.67070790  0.46464970    -0.22900
C533        C  0.83471920  0.63638250  0.48824624     0.00100
H534        H  0.88025052  0.73267568  0.49420433     0.13900
H535        H  0.85654617  0.67325900  0.42580251     0.13900
O536        O  0.68242974  0.51009983  0.29526994    -0.77400
C537        C  0.76813907  0.55094311  0.33651820     0.83700
O538        O  0.69311078  0.68731643  0.23357043    -0.78500
O539        O  0.79143794  0.61404956  0.19728658    -0.80000
O540        O  0.73762714  0.45528992  0.15533793    -0.79800
O541        O  0.67695579  0.46773882  0.22482898    -0.78400
Zn542      Zn  0.71051055  0.56778214  0.28539317     1.55700
O543        O  0.77966223  0.48611256  0.18138541    -0.79800
Cd544      Cd  0.70702235  0.50876522  0.18160497     1.59700
Cd545      Cd  0.71993301  0.63818251  0.19135667     1.59600
O546        O  0.68777832  0.54295405  0.11961812    -0.79800
O547        O  0.72632326  0.56608082  0.22072632    -1.90300
Cd548      Cd  0.76851577  0.55081507  0.22449042     1.59900
O549        O  0.70089702  0.62756971  0.12362089    -0.79800
O550        O  0.78159697  0.54162169  0.29708675    -0.78400
C551        C  0.68228946  0.67724794  0.27518700     0.84100
C552        C  0.67048687  0.47469125  0.26965100     0.83800
O553        O  0.74152731  0.56162720  0.33597153    -0.77400
C554        C  0.76490232  0.45304491  0.15697971     0.84600
O555        O  0.68803793  0.63416289  0.29719196    -0.77500
C556        C  0.68885671  0.58939268  0.10131085     0.84700
C557        C  0.78479836  0.65982570  0.18145031     0.85000
O558        O  0.75884001  0.67538884  0.17930910    -0.79900
N559        N  0.59999404  0.35167148  0.39571274    -0.02400
C560        C  0.57723409  0.31965337  0.38793184     0.00200
C561        C  0.56207949  0.31263706  0.43044440    -0.22700
C562        C  0.57573726  0.34126892  0.46580018    -0.22900
C563        C  0.59871113  0.36522270  0.44368748     0.00100
H564        H  0.54378627  0.28734641  0.43558790     0.13900
H565        H  0.57058792  0.34164930  0.50419631     0.13900
N566        N  0.81535041  0.28699772  0.04290527    -0.02400
C567        C  0.82982072  0.24193755  0.05446156     0.00200
C568        C  0.83438632  0.21218623  0.01302985    -0.22700
C569        C  0.82271442  0.23948689  0.97466992    -0.22900
C570        C  0.81144579  0.28520415  0.99368652     0.00100
H571        H  0.84688048  0.17633131  0.01043654     0.13900
H572        H  0.82323686  0.22817361  0.93664980     0.13900
O573        O  0.73264049  0.39063544  0.82886061    -0.77400
C574        C  0.67494321  0.51064346  0.77043050     0.83700
O575        O  0.68170378  0.29216169  0.71537152    -0.78500
O576        O  0.68323608  0.45210661  0.61698359    -0.80000
O577        O  0.78111885  0.46730124  0.68332827    -0.79800
O578        O  0.77512676  0.39694350  0.79363889    -0.78400
Zn579      Zn  0.70269038  0.40115107  0.77675430     1.55700
O580        O  0.74330653  0.51316011  0.65587445    -0.79800
Cd581      Cd  0.76374871  0.40200267  0.71937766     1.59700
Cd582      Cd  0.70840719  0.34114759  0.67534787     1.59600
O583        O  0.78148046  0.33527773  0.68502668    -0.79800
O584        O  0.72067300  0.40445611  0.71320051    -1.90300
Cd585      Cd  0.70751186  0.47130557  0.67941521     1.59900
O586        O  0.74292115  0.29570622  0.65534692    -0.79800
O587        O  0.68343264  0.51948096  0.72689321    -0.78400
C588        C  0.67044440  0.29888782  0.75705631     0.84100
C589        C  0.75980859  0.38994907  0.83159619     0.83800
O590        O  0.68101814  0.46751677  0.79207723    -0.77400
C591        C  0.77028671  0.50605599  0.65946833     0.84600
O592        O  0.67554033  0.33971757  0.78253554    -0.77500
C593        C  0.76989719  0.29762122  0.66132530     0.84700
C594        C  0.67877525  0.40840520  0.59500875     0.85000
O595        O  0.68764832  0.36450854  0.61223760    -0.79900
N596        N  0.59588536  0.13152112  0.89914651    -0.02400
C597        C  0.62068105  0.15690224  0.88972161     0.02600
C598        C  0.63560967  0.16584840  0.93255448    -0.22700
C599        C  0.61971139  0.14468639  0.96961430    -0.22900
C600        C  0.59553193  0.12374556  0.94823803     0.00100
H601        H  0.65523362  0.18781020  0.93662137     0.13900
H602        H  0.62462573  0.14637550  0.00821895     0.13900
N603        N  0.85217615  0.12925669  0.52872300    -0.02400
C604        C  0.82681357  0.15504093  0.53313264     0.00200
C605        C  0.81415128  0.16153810  0.48777920    -0.22700
C606        C  0.83179052  0.13801194  0.45455950    -0.22900
C607        C  0.85484131  0.11817760  0.48049176     0.00100
H608        H  0.79474893  0.18311478  0.47941665     0.13900
H609        H  0.82864527  0.13707280  0.41543312     0.13900
O610        O  0.96359822  0.07618659  0.33764519    -0.77400
C611        C  0.52980655  0.97206723  0.27581345     0.83700
O612        O  0.50810805  0.18706799  0.21949499    -0.78500
O613        O  0.51624515  0.02956999  0.12377591    -0.80000
O614        O  0.92141681  0.99105579  0.18853988    -0.79800
O615        O  0.92404727  0.04983807  0.29996648    -0.78400
Zn616      Zn  0.99345311  0.07318215  0.28378289     1.55700
O617        O  0.96118875  0.95511794  0.15897222    -0.79800
Cd618      Cd  0.93531985  0.05518481  0.22770093     1.59700
Cd619      Cd  0.98241279  0.13377357  0.18055071     1.59600
O620        O  0.91234663  0.11721623  0.19953436    -0.79800
O621        O  0.97685942  0.06664037  0.21937903    -1.90300
Cd622      Cd  0.99389615  0.00358711  0.18526646     1.59900
O623        O  0.94317415  0.17043420  0.16298309    -0.79800
O624        O  0.52137885  0.96060205  0.23262344    -0.78400
C625        C  0.52019291  0.18057732  0.26101206     0.84100
C626        C  0.93723179  0.06394280  0.33855516     0.83800
O627        O  0.52062815  0.01305175  0.29758420    -0.77400
C628        C  0.93400727  0.95671438  0.16254858     0.84600
O629        O  0.51611008  0.13930901  0.28653575    -0.77500
C630        C  0.91760064  0.15801546  0.17408750     0.84700
C631        C  0.51692034  0.07349575  0.10072082     0.85000
O632        O  0.50403867  0.11452927  0.11662778    -0.79900
C633        C  0.90561419  0.12019136  0.45460282    -0.11200
C634        C  0.87954793  0.09320109  0.45607711     0.05800
C635        C  0.87524781  0.05035299  0.42429439    -0.06500
C636        C  0.89555081  0.03858639  0.38875859    -0.07200
C637        C  0.92051370  0.06862849  0.38422826    -0.01700
C638        C  0.92629031  0.10772233  0.41957935     0.05100
N639        N  0.95159777  0.13885942  0.41745772     0.67600
H640        H  0.90892769  0.15418580  0.47735966     0.16500
H641        H  0.89097706  0.00757791  0.36287491     0.16200
N642        N  0.84945932  0.02049550  0.42554638     0.75300
O643        O  0.95137316  0.18175774  0.39402133    -0.38200
O644        O  0.97217304  0.12850524  0.44591688    -0.38100
O645        O  0.83036385  0.02881239  0.39370294    -0.38800
O646        O  0.84880045  0.97851020  0.45029551    -0.38900
C647        C  0.57619205  0.05825716  0.00683446    -0.11200
C648        C  0.57156903  0.10294416  0.97752181     0.05800
C649        C  0.54672109  0.13327568  0.98461785    -0.06500
C650        C  0.52828058  0.12112104  0.02314590    -0.07200
C651        C  0.53386414  0.07845589  0.05488616    -0.01700
C652        C  0.55725094  0.04492979  0.04434620     0.05100
N653        N  0.56308392  0.99887244  0.07291037     0.67600
H654        H  0.59534228  0.03487237  0.00204295     0.16500
H655        H  0.51022026  0.14687212  0.02961103     0.16200
N656        N  0.54139500  0.17965886  0.95621390     0.75300
O657        O  0.55299922  0.95512243  0.05957667    -0.38200
O658        O  0.58237603  0.99997374  0.10524835    -0.38100
O659        O  0.52131602  0.17988078  0.92528396    -0.38800
O660        O  0.55256258  0.22272719  0.96888610    -0.38900
C661        C  0.77323143  0.20982287  0.62132779    -0.11200
C662        C  0.78744422  0.25498816  0.63842325     0.05800
C663        C  0.81695779  0.25987882  0.62848267    -0.06500
C664        C  0.83060595  0.22292015  0.59816982    -0.07200
C665        C  0.81537283  0.18107758  0.57727667    -0.01700
C666        C  0.78669011  0.17357329  0.59071747     0.05100
N667        N  0.77028678  0.13101559  0.57122709     0.67600
H668        H  0.75087057  0.20391689  0.62934728     0.16500
H669        H  0.85254872  0.22953964  0.58766863     0.16200
N670        N  0.83279755  0.30448209  0.64479113     0.75300
O671        O  0.76488398  0.09200887  0.59822229    -0.38200
O672        O  0.75515028  0.13875691  0.53359403    -0.38100
O673        O  0.84573686  0.30235012  0.68528608    -0.38800
O674        O  0.83925055  0.33992375  0.61451006    -0.38900
C675        C  0.66641801  0.20756049  0.78775321    -0.11200
C676        C  0.65322096  0.25643023  0.77897744     0.05800
C677        C  0.62614770  0.26640633  0.79911645    -0.06500
C678        C  0.61382204  0.22946968  0.83067879    -0.07200
C679        C  0.62846455  0.18309316  0.84351040    -0.01700
C680        C  0.65453010  0.17135847  0.82049860     0.05100
N681        N  0.67040221  0.12507747  0.83330993     0.67600
H682        H  0.68729653  0.19950673  0.77276220     0.16500
H683        H  0.59412398  0.23951047  0.84887704     0.16200
N684        N  0.61179700  0.31532809  0.79046314     0.75300
O685        O  0.66868359  0.08488419  0.80648224    -0.38200
O686        O  0.69045059  0.12824239  0.86414969    -0.38100
O687        O  0.59221370  0.31769805  0.75867511    -0.38800
O688        O  0.61416645  0.35188680  0.82127666    -0.38900
C689        C  0.81532168  0.35091515  0.92746287    -0.11200
C690        C  0.79812318  0.32560774  0.96191426     0.05800
C691        C  0.76832654  0.32970395  0.95769780    -0.06500
C692        C  0.75617418  0.35529051  0.91704329    -0.07200
C693        C  0.77337671  0.37626779  0.87960565    -0.01700
C694        C  0.80330028  0.37658874  0.88682122     0.05100
N695        N  0.82189759  0.40078679  0.85236802     0.67600
H696        H  0.83834722  0.34806984  0.93068039     0.16500
H697        H  0.73316314  0.35480060  0.91302833     0.16200
N698        N  0.75022260  0.30318795  0.99152092     0.75300
O699        O  0.82633109  0.44975466  0.85462348    -0.38200
O700        O  0.83749700  0.37244452  0.82569974    -0.38100
O701        O  0.73629642  0.32934094  0.02241810    -0.38800
O702        O  0.74807204  0.25361641  0.99051122    -0.38900
C703        C  0.87147064  0.26061752  0.10739556    -0.11200
C704        C  0.84664152  0.23097593  0.09916123     0.05800
C705        C  0.84376741  0.18188537  0.12278810    -0.06500
C706        C  0.86633598  0.16164271  0.15076326    -0.07200
C707        C  0.89263933  0.18808554  0.15417109    -0.01700
C708        C  0.89459447  0.23937148  0.13413447     0.05100
N709        N  0.92026498  0.26925828  0.13832174     0.67600
H710        H  0.87410422  0.29802224  0.08883099     0.16500
H711        H  0.86397103  0.12250004  0.16604665     0.16200
N712        N  0.81938380  0.14924325  0.11430770     0.75300
O713        O  0.93812593  0.26838302  0.10410763    -0.38200
O714        O  0.92233822  0.30398634  0.17099349    -0.38100
O715        O  0.81931961  0.11824689  0.07839137    -0.38800
O716        O  0.80221281  0.14108201  0.14871318    -0.38900
C717        C  0.63661483  0.43738249  0.54550010    -0.11200
C718        C  0.66175783  0.40728246  0.54912592     0.05800
C719        C  0.66814221  0.37111387  0.51155896    -0.06500
C720        C  0.64850255  0.36264705  0.47364789    -0.07200
C721        C  0.62215368  0.38882445  0.47276510    -0.01700
C722        C  0.61667646  0.42795656  0.50803674     0.05100
N723        N  0.59024112  0.45627498  0.50786480     0.67600
H724        H  0.63140738  0.46543900  0.57375329     0.16500
H725        H  0.65285127  0.33216928  0.44735696     0.16200
N726        N  0.69387351  0.34064859  0.51265287     0.75300
O727        O  0.57087951  0.44332641  0.53726620    -0.38200
O728        O  0.58852599  0.49993542  0.48584086    -0.38100
O729        O  0.69296395  0.29260627  0.52463147    -0.38800
O730        O  0.71593605  0.35846217  0.49241100    -0.38900
C731        C  0.54961743  0.30932682  0.31100741    -0.11200
C732        C  0.57032766  0.28935647  0.34356476     0.05800
C733        C  0.57738840  0.23527833  0.34197560    -0.06500
C734        C  0.56273476  0.20200480  0.31015610    -0.07200
C735        C  0.53975226  0.22056973  0.28174854    -0.01700
C736        C  0.53397650  0.27526065  0.28048626     0.05100
N737        N  0.51009644  0.29582030  0.25367326     0.67600
H738        H  0.54340486  0.35042186  0.31316197     0.16500
H739        H  0.56755988  0.16019626  0.31130212     0.16200
N740        N  0.59649990  0.21201985  0.37700142     0.75300
O741        O  0.48520045  0.28949005  0.26989616    -0.38200
O742        O  0.51413782  0.32809233  0.21931958    -0.38100
O743        O  0.58747369  0.20195529  0.41926303    -0.38800
O744        O  0.61866658  0.18874634  0.36231921    -0.38900
C745        C  0.65179669  0.38654645  0.29536669    -0.11200
C746        C  0.64881988  0.44163918  0.29422387     0.05800
C747        C  0.62786874  0.46547107  0.32370913    -0.06500
C748        C  0.61174626  0.43485190  0.35571060    -0.07200
C749        C  0.61583081  0.38023942  0.35922334    -0.01700
C750        C  0.63558773  0.35570988  0.32779633     0.05100
N751        N  0.64099261  0.30038078  0.33062944     0.67600
H752        H  0.66807921  0.36778508  0.27355218     0.16500
H753        H  0.59616033  0.45391698  0.37873400     0.16200
N754        N  0.62292677  0.52108185  0.32193985     0.75300
O755        O  0.63712533  0.27236853  0.29321839    -0.38200
O756        O  0.65603879  0.28248648  0.36531614    -0.38100
O757        O  0.60560205  0.53969613  0.29083735    -0.38800
O758        O  0.63090591  0.54940885  0.35720122    -0.38900
C759        C  0.77377614  0.35784889  0.14038710    -0.11200
C760        C  0.77976621  0.41068444  0.12956552     0.05800
C761        C  0.79982449  0.42188947  0.09270031    -0.06500
C762        C  0.81209845  0.38058462  0.06583915    -0.07200
C763        C  0.80522911  0.32784768  0.07531307    -0.01700
C764        C  0.78659273  0.31654875  0.11423953     0.05100
N765        N  0.77983285  0.26350135  0.12707494     0.67600
H766        H  0.75889054  0.34856206  0.16917676     0.16500
H767        H  0.82661710  0.38972894  0.03650621     0.16200
N768        N  0.80726636  0.47491737  0.08067094     0.75300
O769        O  0.78539565  0.24726429  0.16967407    -0.38200
O770        O  0.76310275  0.23737045  0.10029389    -0.38100
O771        O  0.83326884  0.48738276  0.07835414    -0.38800
O772        O  0.78866033  0.50531212  0.06231439    -0.38900
C773        C  0.82655030  0.55790610  0.57266630    -0.11200
C774        C  0.82139567  0.61236903  0.57347423     0.05800
C775        C  0.80125774  0.63242557  0.60682171    -0.06500
C776        C  0.78506155  0.59743127  0.63534409    -0.07200
C777        C  0.78946954  0.54265289  0.63288796    -0.01700
C778        C  0.81117357  0.52325727  0.60230910     0.05100
N779        N  0.81698919  0.46811761  0.59908893     0.67600
H780        H  0.84223785  0.54210614  0.54780314     0.16500
H781        H  0.76879488  0.61309979  0.65918333     0.16200
N782        N  0.79640925  0.68781541  0.61144002     0.75300
O783        O  0.80268405  0.44008869  0.56994137    -0.38200
O784        O  0.83981357  0.45009592  0.61740293    -0.38100
O785        O  0.77861531  0.71038343  0.58358193    -0.38800
O786        O  0.80402039  0.71058933  0.65023537    -0.38900
C787        C  0.77055670  0.58226974  0.42228054    -0.11200
C788        C  0.78397059  0.55562700  0.38367351     0.05800
C789        C  0.81341332  0.54408400  0.38806658    -0.06500
C790        C  0.82933727  0.56627347  0.42627415    -0.07200
C791        C  0.81639370  0.59927804  0.46074959    -0.01700
C792        C  0.78650361  0.60489886  0.46010611     0.05100
N793        N  0.77245728  0.64031608  0.49248940     0.67600
H794        H  0.74793660  0.59110303  0.42042351     0.16500
H795        H  0.85228340  0.56075984  0.42703983     0.16200
N796        N  0.82774410  0.51228827  0.35287254     0.75300
O797        O  0.75351621  0.62286773  0.52069122    -0.38200
O798        O  0.77370072  0.68922183  0.48421518    -0.38100
O799        O  0.84512164  0.53326582  0.32379044    -0.38800
O800        O  0.82712143  0.46274100  0.35696225    -0.38900
C801        C  0.62906165  0.57657879  0.86724707    -0.11200
C802        C  0.63347927  0.63008969  0.85776124     0.05800
C803        C  0.64963645  0.64477445  0.81650224    -0.06500
C804        C  0.66172900  0.60530718  0.78678000    -0.07200
C805        C  0.65845969  0.55145363  0.79782253    -0.01700
C806        C  0.64109578  0.53750988  0.83785798     0.05100
N807        N  0.63437898  0.48376416  0.84808050     0.67600
H808        H  0.61583370  0.56505422  0.89765849     0.16500
H809        H  0.67501205  0.61687186  0.75642269     0.16200
N810        N  0.65517162  0.69914250  0.80563960     0.75300
O811        O  0.64617795  0.46074644  0.88383453    -0.38200
O812        O  0.61248031  0.46377824  0.82865109    -0.38100
O813        O  0.66197538  0.73068050  0.83925914    -0.38800
O814        O  0.65574179  0.71478243  0.76189054    -0.38900
C815        C  0.68782415  0.63994698  0.02320646    -0.11200
C816        C  0.67567672  0.60068415  0.05282938     0.05800
C817        C  0.64989213  0.57707461  0.03741928    -0.06500
C818        C  0.63525069  0.59717168  0.99647909    -0.07200
C819        C  0.64645875  0.63904887  0.96927076    -0.01700
C820        C  0.67358792  0.65869067  0.98145968     0.05100
N821        N  0.68592781  0.70045096  0.95370597     0.67600
H822        H  0.70795622  0.65773521  0.03360055     0.16500
H823        H  0.61412218  0.58244472  0.98795287     0.16200
N824        N  0.63699728  0.53603542  0.06528022     0.75300
O825        O  0.68045839  0.74786602  0.96398680    -0.38200
O826        O  0.70224177  0.68987312  0.91863251    -0.38100
O827        O  0.61670967  0.54684878  0.09360306    -0.38800
O828        O  0.64216718  0.48855454  0.05482214    -0.38900
C829        C  0.90659204  0.72338786  0.63918516    -0.11200
C830        C  0.89921797  0.77676351  0.64552062     0.05800
C831        C  0.87276226  0.79497016  0.62664937    -0.06500
C832        C  0.85550534  0.76104786  0.59917968    -0.07200
C833        C  0.86386964  0.70891699  0.59001240    -0.01700
C834        C  0.88906228  0.68945653  0.61195582     0.05100
N835        N  0.89868488  0.63705621  0.60205515     0.67600
H836        H  0.92668089  0.70849024  0.65357575     0.16500
H837        H  0.83686394  0.77713456  0.58064708     0.16200
N838        N  0.86487128  0.84939028  0.62925825     0.75300
O839        O  0.91827802  0.62935686  0.57153073    -0.38200
O840        O  0.88647046  0.59823984  0.62165443    -0.38100
O841        O  0.87346553  0.88102816  0.59697140    -0.38800
O842        O  0.84536236  0.86359795  0.65789605    -0.38900
C843        C  0.54213949  0.72299333  0.79197154    -0.11200
C844        C  0.54837048  0.77348886  0.77394139     0.05800
C845        C  0.57572235  0.79466732  0.78212449    -0.06500
C846        C  0.59525746  0.76799456  0.81212089    -0.07200
C847        C  0.58818822  0.71985075  0.83396500    -0.01700
C848        C  0.56197185  0.69595439  0.82178881     0.05100
N849        N  0.55383966  0.64758183  0.84451593     0.67600
H850        H  0.52107640  0.70653403  0.78635610     0.16500
H851        H  0.61488651  0.78764408  0.82229273     0.16200
N852        N  0.58296518  0.84566712  0.76386060     0.75300
O853        O  0.53884996  0.64826116  0.88255815    -0.38200
O854        O  0.56371724  0.60443996  0.82911251    -0.38100
O855        O  0.58158928  0.88511584  0.79166071    -0.38800
O856        O  0.59565904  0.84961400  0.72360191    -0.38900
C857        C  0.87820798  0.03725268  0.62662908    -0.11200
C858        C  0.90629543  0.05496176  0.63452919     0.05800
C859        C  0.91510164  0.10165914  0.61064469    -0.06500
C860        C  0.89647980  0.12749509  0.57784574    -0.07200
C861        C  0.86936751  0.10701191  0.56745162    -0.01700
C862        C  0.86001623  0.06220680  0.59297883     0.05100
N863        N  0.83271249  0.03953532  0.58294196     0.67600
H864        H  0.87083618  0.00152276  0.64402544     0.16500
H865        H  0.90336025  0.16307941  0.55989971     0.16200
N866        N  0.94285081  0.12319100  0.61884962     0.75300
O867        O  0.82794602  0.01885263  0.54190918    -0.38200
O868        O  0.81581468  0.03066137  0.61759594    -0.38100
O869        O  0.96132163  0.12065935  0.58566705    -0.38800
O870        O  0.94711177  0.15271297  0.65511981    -0.38900
C871        C  0.56359792  0.02144139  0.82757979    -0.11200
C872        C  0.54198197  0.04721649  0.80084866     0.05800
C873        C  0.53947363  0.10256037  0.80440527    -0.06500
C874        C  0.55775132  0.13053398  0.83612431    -0.07200
C875        C  0.57864674  0.10392242  0.86390851    -0.01700
C876        C  0.58202232  0.04920895  0.85823429     0.05100
N877        N  0.60434321  0.02128850  0.88319336     0.67600
H878        H  0.56616194  0.97926338  0.82480376     0.16500
H879        H  0.55511993  0.17257975  0.84013769     0.16200
N880        N  0.51739063  0.13032432  0.77882082     0.75300
O881        O  0.59809223  0.98648381  0.91425364    -0.38200
O882        O  0.62933196  0.02267739  0.86644001    -0.38100
O883        O  0.49440815  0.14114484  0.80037028    -0.38800
O884        O  0.52284655  0.15236113  0.73865719    -0.38900
C885        C  0.87464042  0.89845890  0.08447648    -0.11200
C886        C  0.88508256  0.84762257  0.07608442     0.05800
C887        C  0.91102941  0.83171104  0.09784544    -0.06500
C888        C  0.92673937  0.86760936  0.12604123    -0.07200
C889        C  0.91642137  0.91887170  0.13433615    -0.01700
C890        C  0.88973096  0.93384809  0.11389566     0.05100
N891        N  0.87833612  0.98572965  0.12036255     0.67600
H892        H  0.85486029  0.91088430  0.06729553     0.16500
H893        H  0.94693446  0.85523605  0.14181566     0.16200
N894        N  0.92181487  0.77949553  0.09119030     0.75300
O895        O  0.88562418  0.02226318  0.09175968    -0.38200
O896        O  0.85729525  0.99255242  0.14814145    -0.38100
O897        O  0.94417314  0.77252131  0.06664006    -0.38800
O898        O  0.91343302  0.74320296  0.11910743    -0.38900
C899        C  0.91682882  0.84825291  0.96200413    -0.11200
C900        C  0.88728435  0.85643354  0.96306707     0.05800
C901        C  0.87437515  0.88821843  0.92689978    -0.06500
C902        C  0.89033584  0.90546840  0.88684625    -0.07200
C903        C  0.91958269  0.89322066  0.88308212    -0.01700
C904        C  0.93312004  0.86701956  0.92286501     0.05100
N905        N  0.96300900  0.85552410  0.92272620     0.67600
H906        H  0.92684847  0.82407483  0.98915300     0.16500
H907        H  0.87964223  0.92718981  0.85818839     0.16200
N908        N  0.84468810  0.90144020  0.92970804     0.75300
O909        O  0.98009357  0.88637260  0.94393383    -0.38200
O910        O  0.97159893  0.81062115  0.90948129    -0.38100
O911        O  0.83520379  0.92472950  0.96689337    -0.38800
O912        O  0.82781672  0.88909609  0.89556551    -0.38900
C913        C  0.85025275  0.70509973  0.11266819    -0.11200
C914        C  0.84223774  0.75669423  0.10042935     0.05800
C915        C  0.81877031  0.77969492  0.12410282    -0.06500
C916        C  0.80142534  0.74865072  0.15410539    -0.07200
C917        C  0.80747228  0.69484189  0.16170438    -0.01700
C918        C  0.83351580  0.67437554  0.14373433     0.05100
N919        N  0.84144819  0.62051839  0.15100158     0.67600
H920        H  0.86791845  0.68658715  0.09394868     0.16500
H921        H  0.78214591  0.76589693  0.16878350     0.16200
N922        N  0.81054713  0.83288375  0.11387860     0.75300
O923        O  0.83463408  0.58694056  0.11922593    -0.38200
O924        O  0.86011968  0.60890468  0.18270393    -0.38100
O925        O  0.79075750  0.84210850  0.08353249    -0.38800
O926        O  0.81893941  0.86917787  0.14182125    -0.38900
C927        C  0.54779251  0.88243433  0.30256286    -0.11200
C928        C  0.55056277  0.93772763  0.30268213     0.05800
C929        C  0.57129504  0.96057702  0.33364615    -0.06500
C930        C  0.58680276  0.92912764  0.36645994    -0.07200
C931        C  0.58271087  0.87452196  0.36888145    -0.01700
C932        C  0.56361887  0.85068513  0.33562940     0.05100
N933        N  0.55874871  0.79508195  0.33712385     0.67600
H934        H  0.53198660  0.86419176  0.27909103     0.16500
H935        H  0.60203499  0.94753462  0.39091539     0.16200
N936        N  0.57712358  0.01584276  0.33167850     0.75300
O937        O  0.55057791  0.77342883  0.37605928    -0.38200
O938        O  0.56046683  0.76815814  0.29861772    -0.38100
O939        O  0.57116496  0.04476091  0.36759293    -0.38800
O940        O  0.59235625  0.03387931  0.29777573    -0.38900
C941        C  0.54471472  0.86138573  0.47933289    -0.11200
C942        C  0.57151628  0.88569073  0.48004965     0.05800
C943        C  0.57655764  0.92667384  0.51364074    -0.06500
C944        C  0.55607276  0.93888102  0.54907967    -0.07200
C945        C  0.53056777  0.91012857  0.55200785    -0.01700
C946        C  0.52429617  0.87321264  0.51490878     0.05100
N947        N  0.99775248  0.84562655  0.51404442     0.67600
H948        H  0.54048418  0.83025564  0.45393303     0.16500
H949        H  0.56113035  0.96785388  0.57647735     0.16200
N950        N  0.60309699  0.95421679  0.51394991     0.75300
O951        O  0.97652624  0.86594524  0.49238082    -0.38200
O952        O  0.99703835  0.79767218  0.52633355    -0.38100
O953        O  0.60502854  0.99746923  0.49138139    -0.38800
O954        O  0.62240745  0.94102322  0.54396017    -0.38900
C955        C  0.64661189  0.80187740  0.32659223    -0.11200
C956        C  0.62802169  0.77926218  0.36074474     0.05800
C957        C  0.62494486  0.72391772  0.36135276    -0.06500
C958        C  0.64158211  0.69243540  0.33083479    -0.07200
C959        C  0.66194887  0.71432644  0.29945333    -0.01700
C960        C  0.66342519  0.76991430  0.29577348     0.05100
N961        N  0.68349953  0.79445776  0.26415111     0.67600
H962        H  0.64967856  0.84414073  0.32636488     0.16500
H963        H  0.63946009  0.65013671  0.33354055     0.16200
N964        N  0.60655943  0.69851773  0.39554108     0.75300
O965        O  0.67552478  0.80992204  0.22241857    -0.38200
O966        O  0.70732497  0.80911065  0.28090968    -0.38100
O967        O  0.58373013  0.67788176  0.38031958    -0.38800
O968        O  0.61647600  0.68452516  0.43653145    -0.38900
loop_ 
_geom_bond_atom_site_label_1 
_geom_bond_atom_site_label_2 
_geom_bond_distance 
_geom_bond_site_symmetry_2 
_ccdc_geom_bond_type 
N1            C5   1.362       .  A
N1            C2   1.364       .  A
N1          C447   1.444       .  S
C2            C3   1.383       .  A
C2          C472   1.487       .  S
C3            C4   1.370       .  A
C3            H6   1.082       .  S
C4            C5   1.380       .  A
C4            H7   1.082       .  S
C5          C458   1.485       .  S
N8           C12   1.357   1_554  A
N8            C9   1.356       .  A
N8          C402   1.435       .  S
C9           C10   1.381       .  A
C9          C430   1.474       .  S
C10          C11   1.371   1_554  A
C10          H13   1.082       .  S
C11          C12   1.382       .  A
C11          H14   1.081       .  S
C12         C416   1.481       .  S
O15          C31   1.272   1_565  A
O15        Zn505   1.988   1_455  S
C16         C419   1.495       .  S
C16          O32   1.274       .  A
C16          O29   1.278       .  A
O17          C30   1.275       .  A
O17        Cd508   2.098   1_455  S
O18          C36   1.276       .  A
O18         Cd27   2.081       .  S
O19          C33   1.279       .  A
O19         Cd23   2.095   1_545  S
O20          C31   1.280       .  A
O20        Cd507   2.118   1_445  S
Zn21         O32   2.022       .  S
Zn21        O499   1.988       .  S
Zn21        O518   2.004       .  S
Zn21         O26   1.928       .  S
O22          C33   1.277   1_565  A
O22         Cd27   2.070       .  S
Cd23        O504   2.118   1_565  S
Cd23        O509   2.105       .  S
Cd23         O26   2.027       .  S
Cd24         O37   2.082       .  S
Cd24        O501   2.098       .  S
Cd24        O512   2.074       .  S
Cd24         O26   2.012       .  S
O25          C35   1.281       .  A
O25        Cd507   2.105   1_455  S
O26         Cd27   1.998       .  S
Cd27         O29   2.088       .  S
O28          C35   1.277       .  A
O28        Cd508   2.074   1_455  S
C30         C360   1.476       .  S
C30          O34   1.272       .  A
C31         C388   1.484       .  S
C33         C374   1.493       .  S
O34        Zn505   2.004   1_455  S
C35         C461   1.489       .  S
C36         C346   1.488       .  S
C36          O37   1.277       .  A
N38          C42   1.360       .  A
N38          C39   1.360       .  A
N38         C318   1.444       .  S
C39          C40   1.382       .  A
C39         C363   1.476       .  S
C40          C41   1.369       .  A
C40          H43   1.082       .  S
C41          C42   1.379       .  A
C41          H44   1.082       .  S
C42         C335   1.476       .  S
N45          C49   1.362       .  A
N45          C46   1.361       .  A
N45         C290   1.446       .  S
C46          C47   1.381       .  A
C46         C349   1.475       .  S
C47          C48   1.367       .  A
C47          H50   1.083       .  S
C48          C49   1.380       .  A
C48          H51   1.082       .  S
C49         C307   1.481       .  S
O52          C68   1.271       .  A
O52         Zn58   1.991       .  S
C53         C304   1.491       .  S
C53          O69   1.275       .  A
C53          O66   1.278       .  A
O54          C67   1.277       .  A
O54         Cd61   2.119       .  S
O55          C73   1.275       .  A
O55         Cd64   2.074       .  S
O56          C70   1.279       .  A
O56         Cd60   2.102       .  S
O57          C68   1.280       .  A
O57         Cd60   2.122       .  S
Zn58         O69   2.006       .  S
Zn58         O71   2.010       .  S
Zn58         O63   1.927       .  S
O59          C70   1.277       .  A
O59         Cd64   2.092       .  S
Cd60         O62   2.101       .  S
Cd60         O63   2.022       .  S
Cd61         O65   2.073       .  S
Cd61         O74   2.084       .  S
Cd61         O63   2.016       .  S
O62          C72   1.280       .  A
O63         Cd64   2.015       .  S
Cd64         O66   2.090       .  S
O65          C72   1.278       .  A
C67         C475   1.497       .  S
C67          O71   1.273       .  A
C68         C262   1.484       .  S
C70         C276   1.487       .  S
C72         C332   1.488       .  S
C73         C433   1.491       .  S
C73          O74   1.278       .  A
N75          C79   1.362       .  A
N75          C76   1.359       .  A
N75         C265   1.445       .  S
C76          C77   1.381       .  A
C76         C248   1.475       .  S
C77          C78   1.369       .  A
C77          H80   1.083       .  S
C78          C79   1.381       .  A
C78          H81   1.082       .  S
C79         C237   1.482       .  S
N82          C86   1.361   1_554  A
N82          C83   1.362       .  A
N82         C279   1.448       .  S
C83          C84   1.383       .  A
C83         C220   1.477       .  S
C84          C85   1.367   1_554  A
C84          H87   1.082       .  S
C85          C86   1.378       .  A
C85          H88   1.082       .  S
C86         C206   1.476       .  S
O89         C105   1.275       .  A
O89         Zn95   2.011       .  S
C90         C321   1.496       .  S
C90         O106   1.273       .  A
C90         O103   1.280       .  A
O91         C104   1.274       .  A
O91         Cd98   2.083       .  S
O92         C110   1.280       .  A
O92        Cd101   2.107       .  S
O93         C107   1.280       .  A
O93         Cd97   2.096       .  S
O94         C105   1.281       .  A
O94         Cd97   2.104       .  S
Zn95        O106   2.009       .  S
Zn95        O108   2.022       .  S
Zn95        O100   1.943       .  S
O96         C107   1.279       .  A
O96        Cd101   2.094       .  S
Cd97         O99   2.110       .  S
Cd97        O100   2.025       .  S
Cd98        O102   2.061       .  S
Cd98        O111   2.062       .  S
Cd98        O100   1.999       .  S
O99         C109   1.277       .  A
O100       Cd101   2.021       .  S
Cd101       O103   2.117       .  S
O102        C109   1.274       .  A
C104        C192   1.477       .  S
C104        O108   1.273       .  A
C105        C209   1.496       .  S
C107        C293   1.488       .  S
C109        C178   1.498       .  S
C110        C234   1.484       .  S
C110        O111   1.275       .  A
N112        C116   1.360       .  A
N112        C113   1.357       .  A
N112        C391   1.440       .  S
C113        C114   1.382       .  A
C113        C195   1.477       .  S
C114        C115   1.373       .  A
C114        H117   1.082       .  S
C115        C116   1.380       .  A
C115        H118   1.082   1_556  S
C116        C164   1.483       .  S
N119        C123   1.359       .  A
N119        C120   1.360       .  A
N119        C377   1.440       .  S
C120        C121   1.383       .  A
C120        C181   1.483       .  S
C121        C122   1.371       .  A
C121        H124   1.082       .  S
C122        C123   1.381       .  A
C122        H125   1.082       .  S
C123        C150   1.482       .  S
O126        C142   1.275       .  A
O126       Zn132   2.043       .  S
C127        C444   1.492       .  S
C127        O143   1.275   1_565  A
C127        O140   1.280       .  A
O128        C141   1.277       .  A
O128       Cd619   2.102   1_455  S
O129        C147   1.280       .  A
O129       Cd622   2.097   1_455  S
O130        C144   1.273       .  A
O130       Cd134   2.057   1_565  S
O131        C142   1.274       .  A
O131       Cd134   2.058       .  S
Zn132       O627   2.016       .  S
Zn132       O629   1.990       .  S
Zn132       O137   1.932       .  S
O133        C144   1.278       .  A
O133       Cd138   2.094   1_565  S
Cd134       O136   2.048       .  S
Cd134       O137   1.984       .  S
Cd135       O139   2.108       .  S
Cd135       O612   2.102       .  S
Cd135       O632   2.089       .  S
Cd135       O137   2.024       .  S
O136        C146   1.272       .  A
O137       Cd138   2.020       .  S
Cd138       O613   2.097       .  S
Cd138       O624   2.118   1_545  S
O139        C146   1.279       .  A
O140       Cd622   2.118   1_465  S
C141        C251   1.482       .  S
C141        O145   1.273       .  A
C142        C153   1.487       .  S
O143       Zn616   2.016   1_455  S
C144        C405   1.483       .  S
O145       Zn616   1.990   1_455  S
C146        C223   1.493       .  S
C147        C167   1.497       .  S
C147        O148   1.280       .  A
O148       Cd619   2.089   1_455  S
C149        C150   1.403       .  A
C149        C154   1.405       .  A
C149        H156   1.077       .  S
C150        C151   1.409       .  A
C151        N158   1.429       .  S
C151        C152   1.399       .  A
C152        C153   1.405       .  A
C152        H157   1.082       .  S
C153        C154   1.414       .  A
C154        N155   1.429       .  S
N155        O159   1.262       .  A
N155        O160   1.262       .  A
N158        O162   1.261   1_545  A
N158        O161   1.262       .  A
C163        C164   1.402   1_554  A
C163        C168   1.405       .  A
C163        H170   1.083       .  S
C164        C165   1.408       .  A
C165        N172   1.429       .  S
C165        C166   1.404   1_556  A
C166        C167   1.409       .  A
C166        H171   1.083       .  S
C167        C168   1.416       .  A
C168        N169   1.429   1_545  S
N169        O173   1.262       .  A
N169        O174   1.262       .  A
N172        O176   1.262       .  A
N172        O175   1.262       .  A
C177        C178   1.407       .  A
C177        C182   1.398       .  A
C177        H184   1.083       .  S
C178        C179   1.417       .  A
C179        N186   1.427       .  S
C179        C180   1.409       .  A
C180        C181   1.403       .  A
C180        H185   1.083       .  S
C181        C182   1.410       .  A
C182        N183   1.430       .  S
N183        O187   1.261       .  A
N183        O188   1.262       .  A
N186        O190   1.261       .  A
N186        O189   1.262       .  A
C191        C192   1.402       .  A
C191        C196   1.402       .  A
C191        H198   1.083       .  S
C192        C193   1.409       .  A
C193        N200   1.427       .  S
C193        C194   1.402       .  A
C194        C195   1.402       .  A
C194        H199   1.082       .  S
C195        C196   1.410       .  A
C196        N197   1.428       .  S
N197        O201   1.261       .  A
N197        O202   1.262       .  A
N200        O204   1.261       .  A
N200        O203   1.262       .  A
C205        C206   1.402       .  A
C205        C210   1.402       .  A
C205        H212   1.084       .  S
C206        C207   1.403       .  A
C207        N214   1.430       .  S
C207        C208   1.404       .  A
C208        C209   1.414       .  A
C208        H213   1.083       .  S
C209        C210   1.414       .  A
C210        N211   1.429       .  S
N211        O215   1.262       .  A
N211        O216   1.262       .  A
N214        O218   1.262       .  A
N214        O217   1.262   1_556  A
C219        C220   1.405       .  A
C219        C224   1.408       .  A
C219        H226   1.083       .  S
C220        C221   1.409       .  A
C221        N228   1.432       .  S
C221        C222   1.397       .  A
C222        C223   1.408       .  A
C222        H227   1.083       .  S
C223        C224   1.414       .  A
C224        N225   1.428       .  S
N225        O229   1.262       .  A
N225        O230   1.262       .  A
N228        O232   1.261       .  A
N228        O231   1.262       .  A
C233        C234   1.404       .  A
C233        C238   1.405       .  A
C233        H240   1.082       .  S
C234        C235   1.414       .  A
C235        N242   1.429       .  S
C235        C236   1.400       .  A
C236        C237   1.399       .  A
C236        H241   1.078       .  S
C237        C238   1.412       .  A
C238        N239   1.429       .  S
N239        O243   1.262       .  A
N239        O244   1.262       .  A
N242        O246   1.262       .  A
N242        O245   1.262       .  A
C247        C248   1.405       .  A
C247        C252   1.409       .  A
C247        H254   1.083       .  S
C248        C249   1.411       .  A
C249        N256   1.432       .  S
C249        C250   1.395       .  A
C250        C251   1.403       .  A
C250        H255   1.084       .  S
C251        C252   1.412       .  A
C252        N253   1.430       .  S
N253        O257   1.262   1_455  A
N253        O258   1.262       .  A
N256        O260   1.262       .  A
N256        O259   1.262       .  A
C261        C262   1.404       .  A
C261        C266   1.411       .  A
C261        H268   1.082       .  S
C262        C263   1.412       .  A
C263        N270   1.429       .  S
C263        C264   1.398       .  A
C264        C265   1.400       .  A
C264        H269   1.082       .  S
C265        C266   1.413       .  A
C266        N267   1.427       .  S
N267        O271   1.262       .  A
N267        O272   1.262       .  A
N270        O274   1.262       .  A
N270        O273   1.262       .  A
C275        C276   1.402       .  A
C275        C280   1.406       .  A
C275        H282   1.083       .  S
C276        C277   1.414       .  A
C277        N284   1.429       .  S
C277        C278   1.406       .  A
C278        C279   1.401       .  A
C278        H283   1.082       .  S
C279        C280   1.413       .  A
C280        N281   1.427       .  S
N281        O285   1.262       .  A
N281        O286   1.261       .  A
N284        O288   1.262       .  A
N284        O287   1.262       .  A
C289        C290   1.402       .  A
C289        C294   1.401       .  A
C289        H296   1.083       .  S
C290        C291   1.413       .  A
C291        N298   1.428       .  S
C291        C292   1.409       .  A
C292        C293   1.406       .  A
C292        H297   1.083       .  S
C293        C294   1.411       .  A
C294        N295   1.427       .  S
N295        O299   1.262       .  A
N295        O300   1.261       .  A
N298        O302   1.262       .  A
N298        O301   1.261       .  A
C303        C304   1.408       .  A
C303        C308   1.399       .  A
C303        H310   1.083       .  S
C304        C305   1.413       .  A
C305        N312   1.429       .  S
C305        C306   1.402       .  A
C306        C307   1.404       .  A
C306        H311   1.084       .  S
C307        C308   1.407       .  A
C308        N309   1.427       .  S
N309        O313   1.262       .  A
N309        O314   1.262       .  A
N312        O316   1.262       .  A
N312        O315   1.262       .  A
C317        C318   1.398       .  A
C317        C322   1.399       .  A
C317        H324   1.083       .  S
C318        C319   1.416       .  A
C319        N326   1.435       .  S
C319        C320   1.412       .  A
C320        C321   1.407       .  A
C320        H325   1.083       .  S
C321        C322   1.416       .  A
C322        N323   1.428       .  S
N323        O327   1.262       .  A
N323        O328   1.261       .  A
N326        O330   1.263       .  A
N326        O329   1.262       .  A
C331        C332   1.408       .  A
C331        C336   1.401   1_554  A
C331        H338   1.084       .  S
C332        C333   1.413       .  A
C333        N340   1.428       .  S
C333        C334   1.404   1_554  A
C334        C335   1.402       .  A
C334        H339   1.084       .  S
C335        C336   1.405       .  A
C336        N337   1.429       .  S
N337        O341   1.262       .  A
N337        O342   1.262       .  A
N340        O344   1.262       .  A
N340        O343   1.262       .  A
C345        C346   1.407       .  A
C345        C350   1.405       .  A
C345        H352   1.084       .  S
C346        C347   1.415       .  A
C347        N354   1.430       .  S
C347        C348   1.401       .  A
C348        C349   1.402       .  A
C348        H353   1.085       .  S
C349        C350   1.407       .  A
C350        N351   1.429       .  S
N351        O355   1.262       .  A
N351        O356   1.262       .  A
N354        O358   1.262       .  A
N354        O357   1.262       .  A
C359        C360   1.404       .  A
C359        C364   1.408       .  A
C359        H366   1.083       .  S
C360        C361   1.408       .  A
C361        N368   1.429       .  S
C361        C362   1.397       .  A
C362        C363   1.400       .  A
C362        H367   1.083       .  S
C363        C364   1.410       .  A
C364        N365   1.429       .  S
N365        O369   1.262       .  A
N365        O370   1.262       .  A
N368        O372   1.262       .  A
N368        O371   1.261       .  A
C373        C374   1.408       .  A
C373        C378   1.399       .  A
C373        H380   1.082       .  S
C374        C375   1.416       .  A
C375        N382   1.429       .  S
C375        C376   1.407       .  A
C376        C377   1.402       .  A
C376        H381   1.078       .  S
C377        C378   1.406       .  A
C378        N379   1.430       .  S
N379        O383   1.261       .  A
N379        O384   1.262       .  A
N382        O386   1.262       .  A
N382        O385   1.262       .  A
C387        C388   1.404       .  A
C387        C392   1.395       .  A
C387        H394   1.079   1_545  S
C388        C389   1.412       .  A
C389        N396   1.428       .  S
C389        C390   1.411       .  A
C390        C391   1.405       .  A
C390        H395   1.079       .  S
C391        C392   1.405       .  A
C392        N393   1.429       .  S
N393        O397   1.261   1_545  A
N393        O398   1.261       .  A
N396        O400   1.262       .  A
N396        O399   1.262   1_455  A
C401        C402   1.398       .  A
C401        C406   1.399       .  A
C401        H408   1.082       .  S
C402        C403   1.407       .  A
C403        N410   1.428       .  S
C403        C404   1.403       .  A
C404        C405   1.405       .  A
C404        H409   1.082       .  S
C405        C406   1.416       .  A
C406        N407   1.430       .  S
N407        O411   1.262   1_565  A
N407        O412   1.262       .  A
N410        O414   1.261       .  A
N410        O413   1.262       .  A
C415        C416   1.399       .  A
C415        C420   1.405       .  A
C415        H422   1.068       .  S
C416        C417   1.407       .  A
C417        N424   1.432       .  S
C417        C418   1.403       .  A
C418        C419   1.408       .  A
C418        H423   1.077       .  S
C419        C420   1.419       .  A
C420        N421   1.429       .  S
N421        O425   1.262       .  A
N421        O426   1.262       .  A
N424        O428   1.262       .  A
N424        O427   1.263       .  A
C429        C430   1.399       .  A
C429        C434   1.399       .  A
C429        H436   1.083       .  S
C430        C431   1.407       .  A
C431        N438   1.428       .  S
C431        C432   1.403       .  A
C432        C433   1.407       .  A
C432        H437   1.083       .  S
C433        C434   1.416       .  A
C434        N435   1.427       .  S
N435        O439   1.260       .  A
N435        O440   1.262       .  A
N438        O442   1.262       .  A
N438        O441   1.262       .  A
C443        C444   1.409       .  A
C443        C448   1.414       .  A
C443        H450   1.084       .  S
C444        C445   1.413       .  A
C445        N452   1.430   1_565  S
C445        C446   1.398       .  A
C446        C447   1.400       .  A
C446        H451   1.084       .  S
C447        C448   1.411       .  A
C448        N449   1.430       .  S
N449        O453   1.262       .  A
N449        O454   1.262       .  A
N452        O456   1.262       .  A
N452        O455   1.262       .  A
C457        C458   1.401       .  A
C457        C462   1.404       .  A
C457        H464   1.072       .  S
C458        C459   1.410       .  A
C459        N466   1.429       .  S
C459        C460   1.405       .  A
C460        C461   1.405       .  A
C460        H465   1.078       .  S
C461        C462   1.415       .  A
C462        N947   1.430   1_455  S
N463        C946   1.430       .  S
N463        O467   1.262       .  A
N463        O468   1.262       .  A
N466        O470   1.262       .  A
N466        O469   1.262       .  A
C471        C472   1.406       .  A
C471        C476   1.414       .  A
C471        H478   1.082       .  S
C472        C473   1.412       .  A
C473        N480   1.431       .  S
C473        C474   1.398       .  A
C474        C475   1.405       .  A
C474        H479   1.080       .  S
C475        C476   1.415       .  A
C476        N477   1.427       .  S
N477        O481   1.262       .  A
N477        O482   1.262       .  A
N480        O484   1.262       .  A
N480        O483   1.262       .  A
N485        C489   1.362       .  A
N485        C486   1.364       .  A
N485        C931   1.444       .  S
C486        C487   1.383       .  A
C486        C956   1.487       .  S
C487        C488   1.370       .  A
C487        H490   1.082       .  S
C488        C489   1.380       .  A
C488        H491   1.082       .  S
C489        C942   1.485       .  S
N492        C496   1.357   1_554  A
N492        C493   1.356       .  A
N492        C886   1.435       .  S
C493        C494   1.381       .  A
C493        C914   1.474       .  S
C494        C495   1.371   1_554  A
C494        H497   1.082       .  S
C495        C496   1.382       .  A
C495        H498   1.081       .  S
C496        C900   1.481       .  S
O499        C515   1.272   1_565  A
C500        C903   1.495       .  S
C500        O516   1.274       .  A
C500        O513   1.278       .  A
O501        C514   1.275       .  A
O502        C520   1.276       .  A
O502       Cd511   2.081       .  S
O503        C517   1.279       .  A
O503       Cd507   2.095   1_545  S
O504        C515   1.280       .  A
Zn505       O516   2.022       .  S
Zn505       O510   1.928       .  S
O506        C517   1.277   1_565  A
O506       Cd511   2.070       .  S
Cd507       O510   2.027       .  S
Cd508       O521   2.082       .  S
Cd508       O510   2.012       .  S
O509        C519   1.281       .  A
O510       Cd511   1.998       .  S
Cd511       O513   2.088       .  S
O512        C519   1.277       .  A
C514        C844   1.476       .  S
C514        O518   1.272       .  A
C515        C872   1.484       .  S
C517        C858   1.493       .  S
C519        C945   1.489       .  S
C520        C830   1.488       .  S
C520        O521   1.277       .  A
N522        C526   1.360       .  A
N522        C523   1.360       .  A
N522        C802   1.444       .  S
C523        C524   1.382       .  A
C523        C847   1.476       .  S
C524        C525   1.369       .  A
C524        H527   1.082       .  S
C525        C526   1.379       .  A
C525        H528   1.082       .  S
C526        C819   1.476       .  S
N529        C533   1.362       .  A
N529        C530   1.361       .  A
N529        C774   1.446       .  S
C530        C531   1.381       .  A
C530        C833   1.475       .  S
C531        C532   1.367       .  A
C531        H534   1.083       .  S
C532        C533   1.380       .  A
C532        H535   1.082       .  S
C533        C791   1.481       .  S
O536        C552   1.271       .  A
O536       Zn542   1.991       .  S
C537        C788   1.491       .  S
C537        O553   1.275       .  A
C537        O550   1.278       .  A
O538        C551   1.277       .  A
O538       Cd545   2.119       .  S
O539        C557   1.275       .  A
O539       Cd548   2.074       .  S
O540        C554   1.279       .  A
O540       Cd544   2.102       .  S
O541        C552   1.280       .  A
O541       Cd544   2.122       .  S
Zn542       O553   2.006       .  S
Zn542       O555   2.010       .  S
Zn542       O547   1.927       .  S
O543        C554   1.277       .  A
O543       Cd548   2.092       .  S
Cd544       O546   2.101       .  S
Cd544       O547   2.022       .  S
Cd545       O549   2.073       .  S
Cd545       O558   2.084       .  S
Cd545       O547   2.016       .  S
O546        C556   1.280       .  A
O547       Cd548   2.015       .  S
Cd548       O550   2.090       .  S
O549        C556   1.278       .  A
C551        C959   1.497       .  S
C551        O555   1.273       .  A
C552        C746   1.484       .  S
C554        C760   1.487       .  S
C556        C816   1.488       .  S
C557        C917   1.491       .  S
C557        O558   1.278       .  A
N559        C563   1.362       .  A
N559        C560   1.359       .  A
N559        C749   1.445       .  S
C560        C561   1.381       .  A
C560        C732   1.475       .  S
C561        C562   1.369       .  A
C561        H564   1.083       .  S
C562        C563   1.381       .  A
C562        H565   1.082       .  S
C563        C721   1.482       .  S
N566        C570   1.361   1_554  A
N566        C567   1.362       .  A
N566        C763   1.448       .  S
C567        C568   1.383       .  A
C567        C704   1.477       .  S
C568        C569   1.367   1_554  A
C568        H571   1.082       .  S
C569        C570   1.378       .  A
C569        H572   1.082       .  S
C570        C690   1.476       .  S
O573        C589   1.275       .  A
O573       Zn579   2.011       .  S
C574        C805   1.496       .  S
C574        O590   1.273       .  A
C574        O587   1.280       .  A
O575        C588   1.274       .  A
O575       Cd582   2.083       .  S
O576        C594   1.280       .  A
O576       Cd585   2.107       .  S
O577        C591   1.280       .  A
O577       Cd581   2.096       .  S
O578        C589   1.281       .  A
O578       Cd581   2.104       .  S
Zn579       O590   2.009       .  S
Zn579       O592   2.022       .  S
Zn579       O584   1.943       .  S
O580        C591   1.279       .  A
O580       Cd585   2.094       .  S
Cd581       O583   2.110       .  S
Cd581       O584   2.025       .  S
Cd582       O586   2.061       .  S
Cd582       O595   2.062       .  S
Cd582       O584   1.999       .  S
O583        C593   1.277       .  A
O584       Cd585   2.021       .  S
Cd585       O587   2.117       .  S
O586        C593   1.274       .  A
C588        C676   1.477       .  S
C588        O592   1.273       .  A
C589        C693   1.496       .  S
C591        C777   1.488       .  S
C593        C662   1.498       .  S
C594        C718   1.484       .  S
C594        O595   1.275       .  A
N596        C600   1.360       .  A
N596        C597   1.357       .  A
N596        C875   1.440       .  S
C597        C598   1.382       .  A
C597        C679   1.477       .  S
C598        C599   1.373       .  A
C598        H601   1.082       .  S
C599        C600   1.380       .  A
C599        H602   1.082   1_556  S
C600        C648   1.483       .  S
N603        C607   1.359       .  A
N603        C604   1.360       .  A
N603        C861   1.440       .  S
C604        C605   1.383       .  A
C604        C665   1.483       .  S
C605        C606   1.371       .  A
C605        H608   1.082       .  S
C606        C607   1.381       .  A
C606        H609   1.082       .  S
C607        C634   1.482       .  S
O610        C626   1.275       .  A
O610       Zn616   2.043       .  S
C611        C928   1.492       .  S
C611        O627   1.275   1_565  A
C611        O624   1.280       .  A
O612        C625   1.277       .  A
O613        C631   1.280       .  A
O614        C628   1.273       .  A
O614       Cd618   2.057   1_565  S
O615        C626   1.274       .  A
O615       Cd618   2.058       .  S
Zn616       O621   1.932       .  S
O617        C628   1.278       .  A
O617       Cd622   2.094   1_565  S
Cd618       O620   2.048       .  S
Cd618       O621   1.984       .  S
Cd619       O623   2.108       .  S
Cd619       O621   2.024       .  S
O620        C630   1.272       .  A
O621       Cd622   2.020       .  S
O623        C630   1.279       .  A
C625        C735   1.482       .  S
C625        O629   1.273       .  A
C626        C637   1.487       .  S
C628        C889   1.483       .  S
C630        C707   1.493       .  S
C631        C651   1.497       .  S
C631        O632   1.280       .  A
C633        C634   1.403       .  A
C633        C638   1.405       .  A
C633        H640   1.077       .  S
C634        C635   1.409       .  A
C635        N642   1.429       .  S
C635        C636   1.399       .  A
C636        C637   1.405       .  A
C636        H641   1.082       .  S
C637        C638   1.414       .  A
C638        N639   1.429       .  S
N639        O643   1.262       .  A
N639        O644   1.262       .  A
N642        O646   1.261   1_545  A
N642        O645   1.262       .  A
C647        C648   1.402   1_554  A
C647        C652   1.405       .  A
C647        H654   1.083       .  S
C648        C649   1.408       .  A
C649        N656   1.429       .  S
C649        C650   1.404   1_556  A
C650        C651   1.409       .  A
C650        H655   1.083       .  S
C651        C652   1.416       .  A
C652        N653   1.429   1_545  S
N653        O657   1.262       .  A
N653        O658   1.262       .  A
N656        O660   1.262       .  A
N656        O659   1.262       .  A
C661        C662   1.407       .  A
C661        C666   1.398       .  A
C661        H668   1.083       .  S
C662        C663   1.417       .  A
C663        N670   1.427       .  S
C663        C664   1.409       .  A
C664        C665   1.403       .  A
C664        H669   1.083       .  S
C665        C666   1.410       .  A
C666        N667   1.430       .  S
N667        O671   1.261       .  A
N667        O672   1.262       .  A
N670        O674   1.261       .  A
N670        O673   1.262       .  A
C675        C676   1.402       .  A
C675        C680   1.402       .  A
C675        H682   1.083       .  S
C676        C677   1.409       .  A
C677        N684   1.427       .  S
C677        C678   1.402       .  A
C678        C679   1.402       .  A
C678        H683   1.082       .  S
C679        C680   1.410       .  A
C680        N681   1.428       .  S
N681        O685   1.261       .  A
N681        O686   1.262       .  A
N684        O688   1.261       .  A
N684        O687   1.262       .  A
C689        C690   1.402       .  A
C689        C694   1.402       .  A
C689        H696   1.084       .  S
C690        C691   1.403       .  A
C691        N698   1.430       .  S
C691        C692   1.404       .  A
C692        C693   1.414       .  A
C692        H697   1.083       .  S
C693        C694   1.414       .  A
C694        N695   1.429       .  S
N695        O699   1.262       .  A
N695        O700   1.262       .  A
N698        O702   1.262       .  A
N698        O701   1.262   1_556  A
C703        C704   1.405       .  A
C703        C708   1.408       .  A
C703        H710   1.083       .  S
C704        C705   1.409       .  A
C705        N712   1.432       .  S
C705        C706   1.397       .  A
C706        C707   1.408       .  A
C706        H711   1.083       .  S
C707        C708   1.414       .  A
C708        N709   1.428       .  S
N709        O713   1.262       .  A
N709        O714   1.262       .  A
N712        O716   1.261       .  A
N712        O715   1.262       .  A
C717        C718   1.404       .  A
C717        C722   1.405       .  A
C717        H724   1.082       .  S
C718        C719   1.414       .  A
C719        N726   1.429       .  S
C719        C720   1.400       .  A
C720        C721   1.399       .  A
C720        H725   1.078       .  S
C721        C722   1.412       .  A
C722        N723   1.429       .  S
N723        O727   1.262       .  A
N723        O728   1.262       .  A
N726        O730   1.262       .  A
N726        O729   1.262       .  A
C731        C732   1.405       .  A
C731        C736   1.409       .  A
C731        H738   1.083       .  S
C732        C733   1.411       .  A
C733        N740   1.432       .  S
C733        C734   1.395       .  A
C734        C735   1.403       .  A
C734        H739   1.084       .  S
C735        C736   1.412       .  A
C736        N737   1.430       .  S
N737        O741   1.262       .  A
N737        O742   1.262       .  A
N740        O744   1.262       .  A
N740        O743   1.262       .  A
C745        C746   1.404       .  A
C745        C750   1.411       .  A
C745        H752   1.082       .  S
C746        C747   1.412       .  A
C747        N754   1.429       .  S
C747        C748   1.398       .  A
C748        C749   1.400       .  A
C748        H753   1.082       .  S
C749        C750   1.413       .  A
C750        N751   1.427       .  S
N751        O755   1.262       .  A
N751        O756   1.262       .  A
N754        O758   1.262       .  A
N754        O757   1.262       .  A
C759        C760   1.402       .  A
C759        C764   1.406       .  A
C759        H766   1.083       .  S
C760        C761   1.414       .  A
C761        N768   1.429       .  S
C761        C762   1.406       .  A
C762        C763   1.401       .  A
C762        H767   1.082       .  S
C763        C764   1.413       .  A
C764        N765   1.427       .  S
N765        O769   1.262       .  A
N765        O770   1.261       .  A
N768        O772   1.262       .  A
N768        O771   1.262       .  A
C773        C774   1.402       .  A
C773        C778   1.401       .  A
C773        H780   1.083       .  S
C774        C775   1.413       .  A
C775        N782   1.428       .  S
C775        C776   1.409       .  A
C776        C777   1.406       .  A
C776        H781   1.083       .  S
C777        C778   1.411       .  A
C778        N779   1.427       .  S
N779        O783   1.262       .  A
N779        O784   1.261       .  A
N782        O786   1.262       .  A
N782        O785   1.261       .  A
C787        C788   1.408       .  A
C787        C792   1.399       .  A
C787        H794   1.083       .  S
C788        C789   1.413       .  A
C789        N796   1.429       .  S
C789        C790   1.402       .  A
C790        C791   1.404       .  A
C790        H795   1.084       .  S
C791        C792   1.407       .  A
C792        N793   1.427       .  S
N793        O797   1.262       .  A
N793        O798   1.262       .  A
N796        O800   1.262       .  A
N796        O799   1.262       .  A
C801        C802   1.398       .  A
C801        C806   1.399       .  A
C801        H808   1.083       .  S
C802        C803   1.416       .  A
C803        N810   1.435       .  S
C803        C804   1.412       .  A
C804        C805   1.407       .  A
C804        H809   1.083       .  S
C805        C806   1.416       .  A
C806        N807   1.428       .  S
N807        O811   1.262       .  A
N807        O812   1.261       .  A
N810        O814   1.263       .  A
N810        O813   1.262       .  A
C815        C816   1.408       .  A
C815        C820   1.401   1_554  A
C815        H822   1.084       .  S
C816        C817   1.413       .  A
C817        N824   1.428       .  S
C817        C818   1.404   1_554  A
C818        C819   1.402       .  A
C818        H823   1.084       .  S
C819        C820   1.405       .  A
C820        N821   1.429       .  S
N821        O825   1.262       .  A
N821        O826   1.262       .  A
N824        O828   1.262       .  A
N824        O827   1.262       .  A
C829        C830   1.407       .  A
C829        C834   1.405       .  A
C829        H836   1.084       .  S
C830        C831   1.415       .  A
C831        N838   1.430       .  S
C831        C832   1.401       .  A
C832        C833   1.402       .  A
C832        H837   1.085       .  S
C833        C834   1.407       .  A
C834        N835   1.429       .  S
N835        O839   1.262       .  A
N835        O840   1.262       .  A
N838        O842   1.262       .  A
N838        O841   1.262       .  A
C843        C844   1.404       .  A
C843        C848   1.408       .  A
C843        H850   1.083       .  S
C844        C845   1.408       .  A
C845        N852   1.429       .  S
C845        C846   1.397       .  A
C846        C847   1.400       .  A
C846        H851   1.083       .  S
C847        C848   1.410       .  A
C848        N849   1.429       .  S
N849        O853   1.262       .  A
N849        O854   1.262       .  A
N852        O856   1.262       .  A
N852        O855   1.261       .  A
C857        C858   1.408       .  A
C857        C862   1.399       .  A
C857        H864   1.082       .  S
C858        C859   1.416       .  A
C859        N866   1.429       .  S
C859        C860   1.407       .  A
C860        C861   1.402       .  A
C860        H865   1.078       .  S
C861        C862   1.406       .  A
C862        N863   1.430       .  S
N863        O867   1.261       .  A
N863        O868   1.262       .  A
N866        O870   1.262       .  A
N866        O869   1.262       .  A
C871        C872   1.404       .  A
C871        C876   1.395       .  A
C871        H878   1.079   1_545  S
C872        C873   1.412       .  A
C873        N880   1.428       .  S
C873        C874   1.411       .  A
C874        C875   1.405       .  A
C874        H879   1.079       .  S
C875        C876   1.405       .  A
C876        N877   1.429       .  S
N877        O881   1.261   1_545  A
N877        O882   1.261       .  A
N880        O884   1.262       .  A
N880        O883   1.262       .  A
C885        C886   1.398       .  A
C885        C890   1.399       .  A
C885        H892   1.082       .  S
C886        C887   1.407       .  A
C887        N894   1.428       .  S
C887        C888   1.403       .  A
C888        C889   1.405       .  A
C888        H893   1.082       .  S
C889        C890   1.416       .  A
C890        N891   1.430       .  S
N891        O895   1.262   1_565  A
N891        O896   1.262       .  A
N894        O898   1.261       .  A
N894        O897   1.262       .  A
C899        C900   1.399       .  A
C899        C904   1.405       .  A
C899        H906   1.068       .  S
C900        C901   1.407       .  A
C901        N908   1.432       .  S
C901        C902   1.403       .  A
C902        C903   1.408       .  A
C902        H907   1.077       .  S
C903        C904   1.419       .  A
C904        N905   1.429       .  S
N905        O909   1.262       .  A
N905        O910   1.262       .  A
N908        O912   1.262       .  A
N908        O911   1.263       .  A
C913        C914   1.399       .  A
C913        C918   1.399       .  A
C913        H920   1.083       .  S
C914        C915   1.407       .  A
C915        N922   1.428       .  S
C915        C916   1.403       .  A
C916        C917   1.407       .  A
C916        H921   1.083       .  S
C917        C918   1.416       .  A
C918        N919   1.427       .  S
N919        O923   1.260       .  A
N919        O924   1.262       .  A
N922        O926   1.262       .  A
N922        O925   1.262       .  A
C927        C928   1.409       .  A
C927        C932   1.414       .  A
C927        H934   1.084       .  S
C928        C929   1.413       .  A
C929        N936   1.430   1_565  S
C929        C930   1.398       .  A
C930        C931   1.400       .  A
C930        H935   1.084       .  S
C931        C932   1.411       .  A
C932        N933   1.430       .  S
N933        O937   1.262       .  A
N933        O938   1.262       .  A
N936        O940   1.262       .  A
N936        O939   1.262       .  A
C941        C942   1.401       .  A
C941        C946   1.404       .  A
C941        H948   1.072       .  S
C942        C943   1.410       .  A
C943        N950   1.429       .  S
C943        C944   1.405       .  A
C944        C945   1.405       .  A
C944        H949   1.078       .  S
C945        C946   1.415       .  A
N947        O951   1.262       .  A
N947        O952   1.262       .  A
N950        O954   1.262       .  A
N950        O953   1.262       .  A
C955        C956   1.406       .  A
C955        C960   1.414       .  A
C955        H962   1.082       .  S
C956        C957   1.412       .  A
C957        N964   1.431       .  S
C957        C958   1.398       .  A
C958        C959   1.405       .  A
C958        H963   1.080       .  S
C959        C960   1.415       .  A
C960        N961   1.427       .  S
N961        O965   1.262       .  A
N961        O966   1.262       .  A
N964        O968   1.262       .  A
N964        O967   1.262       .  A
