geometry optimzed in LAMMPS
_audit_creation_date              2020-11-30 
_audit_creation_method            'lammps2cif' 
_symmetry_space_group_name_H-M    'P1' 
_symmetry_Int_Tables_number       1 
_symmetry_cell_setting            triclinic 
loop_ 
_symmetry_equiv_pos_as_xyz 
  x,y,z 
_cell_length_a                    37.0570675 
_cell_length_b                    37.308272675000694 
_cell_length_c                    30.376881064056565 
_cell_angle_alpha                 90.01128437533414 
_cell_angle_beta                  89.54974740312993 
_cell_angle_gamma                 89.88489627950658 
loop_ 
_atom_site_label 
_atom_site_type_symbol 
_atom_site_fract_x 
_atom_site_fract_y 
_atom_site_fract_z 
_atom_site_charge 
C1          C  0.50068264  0.24931804  0.77606520     0.86800
C2          C  0.46699408  0.27316990  0.78166736    -0.53500
C3          C  0.46640245  0.30180181  0.75378935     0.09700
C4          C  0.49926948  0.30374240  0.72305541     0.20700
C5          C  0.50123879  0.23869984  0.72709107    -0.54200
C6          C  0.50044936  0.26738704  0.69915807     0.09800
C7          C  0.53284655  0.27491268  0.78151103    -0.53700
C8          C  0.53217566  0.30345354  0.75345278     0.10400
H9          H  0.44574352  0.26790947  0.80555092     0.14900
H10         H  0.49828899  0.32710481  0.70097011     0.00600
H11         H  0.50220865  0.21111633  0.71570750     0.15200
H12         H  0.55426639  0.27064920  0.80515657     0.15000
C13         C  0.23288861  0.51069623  0.75562283     0.86800
C14         C  0.25753306  0.54330643  0.76359515    -0.53500
C15         C  0.28730486  0.54412558  0.73682191     0.09700
C16         C  0.29014009  0.51183981  0.70572104     0.20700
C17         C  0.22451137  0.51172447  0.70591554    -0.54200
C18         C  0.25477107  0.51231994  0.67965723     0.09800
C19         C  0.25778161  0.47799589  0.76135433    -0.53700
C20         C  0.28785656  0.47864959  0.73536305     0.10400
H21         H  0.25152486  0.56419459  0.78746352     0.14900
H22         H  0.31474186  0.51205519  0.68536406     0.00600
H23         H  0.19731132  0.51199855  0.69289213     0.15200
H24         H  0.25241824  0.45637998  0.78441192     0.15000
C25         C  0.76269241  0.51491768  0.77150965     0.86800
C26         C  0.73916009  0.48138563  0.77620500    -0.53500
C27         C  0.71002839  0.48096541  0.74918665     0.09700
C28         C  0.70723850  0.51439785  0.71964760     0.20700
C29         C  0.77286125  0.51660007  0.72253957    -0.54200
C30         C  0.74375930  0.51633165  0.69522189     0.09800
C31         C  0.73664049  0.54654412  0.77912452    -0.53700
C32         C  0.70761612  0.54651578  0.75147272     0.10400
H33         H  0.74492907  0.46008267  0.79939706     0.14900
H34         H  0.68358584  0.51402013  0.69743330     0.00600
H35         H  0.80056770  0.51806141  0.71083656     0.15200
H36         H  0.74133212  0.56726375  0.80346686     0.15000
C37         C  0.49610304  0.77837227  0.75583893     0.86800
C38         C  0.52908789  0.75352198  0.76072409    -0.53500
C39         C  0.52825539  0.72378840  0.73462053     0.09700
C40         C  0.49444426  0.72181946  0.70568228     0.20700
C41         C  0.49455886  0.78710857  0.70627837    -0.54200
C42         C  0.49395798  0.75726911  0.67993332     0.09800
C43         C  0.46346398  0.75394705  0.76460895    -0.53700
C44         C  0.46241533  0.72445811  0.73798621     0.10400
H45         H  0.55103820  0.75870311  0.78330840     0.14900
H46         H  0.49332694  0.69774522  0.68437086     0.00600
H47         H  0.49467529  0.81426805  0.69349356     0.15200
H48         H  0.44287304  0.75988710  0.78915879     0.15000
C49         C  0.50303770  0.23478391  0.31543688     0.86800
C50         C  0.53474579  0.26047741  0.30688626    -0.53500
C51         C  0.53519085  0.28953330  0.33431813     0.09700
C52         C  0.50353996  0.29030023  0.36718224     0.20700
C53         C  0.50552764  0.22501045  0.36458637    -0.54200
C54         C  0.50561542  0.25432233  0.39170937     0.09800
C55         C  0.46909478  0.25845517  0.31205915    -0.53700
C56         C  0.46932292  0.28760659  0.33911972     0.10400
H57         H  0.55502543  0.25570805  0.28159516     0.14900
H58         H  0.50415218  0.31389017  0.38928738     0.00600
H59         H  0.50649475  0.19761917  0.37654679     0.15200
H60         H  0.44687244  0.25282452  0.29003574     0.15000
C61         C  0.23976850  0.49876267  0.29579746     0.86800
C62         C  0.26183102  0.46383107  0.29435032    -0.53500
C63         C  0.29054582  0.46378627  0.32226060     0.09700
C64         C  0.29429813  0.49859193  0.34884432     0.20700
C65         C  0.22897065  0.50355256  0.34430641    -0.54200
C66         C  0.25766978  0.50350467  0.37217934     0.09800
C67         C  0.26716997  0.52856950  0.28628323    -0.53700
C68         C  0.29575613  0.52864618  0.31420977     0.10400
H69         H  0.25538685  0.44144250  0.27304944     0.14900
H70         H  0.31736919  0.49822804  0.37179258     0.00600
H71         H  0.20121877  0.50689735  0.35525740     0.15200
H72         H  0.26392563  0.54814024  0.26012371     0.15000
C73         C  0.76446343  0.50323396  0.31140286     0.86800
C74         C  0.73824280  0.53444507  0.30208045    -0.53500
C75         C  0.70864925  0.53511169  0.32901569     0.09700
C76         C  0.70812495  0.50468727  0.36293840     0.20700
C77         C  0.77370459  0.50692851  0.36062894    -0.54200
C78         C  0.74399026  0.50813643  0.38768273     0.09800
C79         C  0.74075739  0.46937011  0.30855759    -0.53700
C80         C  0.71121904  0.47005906  0.33584835     0.10400
H81         H  0.74250228  0.55411951  0.27622814     0.14900
H82         H  0.68425728  0.50501172  0.38455003     0.00600
H83         H  0.80109870  0.50925960  0.37271092     0.15200
H84         H  0.74663786  0.44707998  0.28664722     0.15000
C85         C  0.49855101  0.76721484  0.29584977     0.86800
C86         C  0.46630128  0.74247152  0.28721230    -0.53500
C87         C  0.46588613  0.71267085  0.31328920     0.09700
C88         C  0.49770543  0.71046080  0.34527036     0.20700
C89         C  0.49679505  0.77563580  0.34534056    -0.54200
C90         C  0.49659963  0.74581883  0.37146414     0.09800
C91         C  0.53192579  0.74301435  0.28991796    -0.53700
C92         C  0.53127616  0.71310174  0.31563889     0.10400
H93         H  0.44610385  0.74796594  0.26242172     0.14900
H94         H  0.49725577  0.68597052  0.36586709     0.00600
H95         H  0.49626750  0.80272730  0.35842280     0.15200
H96         H  0.55376674  0.74878988  0.26702829     0.15000
O97         O  0.03921315  0.53469484  0.98793514    -0.72700
O98         O  0.96172838  0.53443988  0.08218046    -0.73600
O99         O  0.03846316  0.53353411  0.08209775    -0.62300
O100        O  0.96305848  0.53543139  0.98828801    -0.70700
O101        O  0.96156696  0.47590039  0.98907883    -0.70200
O102        O  0.03865043  0.47400442  0.07956926    -0.61500
O103        O  0.96223137  0.47497025  0.08310119    -0.74000
O104        O  0.03816469  0.47521839  0.98664189    -0.72800
Cu105      Cu  0.00062385  0.53662988  0.03523955     1.04600
Cu106      Cu  0.00008168  0.47296202  0.03458090     1.04300
C107        C  0.05058625  0.50496340  0.97211618     0.93500
C108        C  0.95003404  0.50478042  0.09782650     0.92700
C109        C  0.05066584  0.50334706  0.09514036     0.84800
C110        C  0.95063408  0.50585421  0.97380256     0.91100
O111        O  0.47371315  0.96813207  0.08014179    -0.72700
O112        O  0.47383122  0.04709004  0.99139397    -0.73600
O113        O  0.47361431  0.97116222  0.98601662    -0.62300
O114        O  0.47386622  0.04386391  0.08379181    -0.70700
O115        O  0.53378044  0.04344662  0.08407727    -0.70200
O116        O  0.53351719  0.97056805  0.98565806    -0.61500
O117        O  0.53379110  0.04678009  0.98997593    -0.74000
O118        O  0.53367294  0.96752544  0.07889446    -0.72800
Cu119      Cu  0.47170247  0.00747973  0.03531467     1.04600
Cu120      Cu  0.53583567  0.00706599  0.03459106     1.04300
C121        C  0.50369348  0.95564620  0.09380442     0.93500
C122        C  0.50370658  0.05959285  0.97703604     0.92700
C123        C  0.50349473  0.95947081  0.97031936     0.84800
C124        C  0.50370667  0.05514188  0.09929208     0.91100
C125        C  0.51780342  0.83694678  0.22084714     0.30100
C126        C  0.53863387  0.85551586  0.18980196    -0.36300
C127        C  0.52135822  0.88390720  0.16855773     0.16000
C128        C  0.48590033  0.89327203  0.17697022     0.21900
C129        C  0.46522164  0.87507914  0.20873891    -0.34400
C130        C  0.48265410  0.84676325  0.23029711     0.15900
O131        O  0.52810093  0.80842721  0.24277510    -0.26400
C132        C  0.49935897  0.79986001  0.26697806     0.05700
C133        C  0.47033962  0.82306818  0.26100105    -0.31300
O134        O  0.47481310  0.91972356  0.15168593    -0.23100
C135        C  0.50369628  0.92746741  0.12722552    -0.03100
C136        C  0.53348109  0.90622043  0.13644890    -0.17600
H137        H  0.56616775  0.84788857  0.18212499     0.20400
H138        H  0.43737542  0.88206882  0.21555968     0.18800
H139        H  0.44371882  0.82169749  0.27581142     0.18700
H140        H  0.55992443  0.90669199  0.12106051     0.14600
C141        C  0.83386773  0.52077965  0.23276835     0.30100
C142        C  0.85252913  0.54122657  0.20120782    -0.36300
C143        C  0.87991916  0.52343468  0.17765229     0.16000
C144        C  0.88828828  0.48781396  0.18434023     0.21900
C145        C  0.87001274  0.46748636  0.21660509    -0.34400
C146        C  0.84273600  0.48543935  0.24051853     0.15900
O147        O  0.80613667  0.53169433  0.25674858    -0.26400
C148        C  0.79703938  0.50317620  0.28077007     0.05700
C149        C  0.81929774  0.47367622  0.27239484    -0.31300
O150        O  0.91393682  0.47630508  0.15720888    -0.23100
C151        C  0.92229813  0.50507439  0.13314458    -0.03100
C152        C  0.90206573  0.53516254  0.14466713    -0.17600
H153        H  0.84569888  0.56895911  0.19488122     0.20400
H154        H  0.87621875  0.43950562  0.22217721     0.18800
H155        H  0.81746583  0.44707660  0.28642473     0.18700
H156        H  0.90308742  0.56166724  0.13022810     0.14600
C157        C  0.64983755  0.60616290  0.30320411     0.30100
C158        C  0.63741808  0.63646782  0.28037394    -0.36300
C159        C  0.60584266  0.65246399  0.29717683     0.16000
C160        C  0.58768280  0.63928168  0.33353917     0.21900
C161        C  0.59988496  0.60895402  0.35600761    -0.34400
C162        C  0.63148216  0.59324299  0.33951474     0.15900
O163        O  0.67935224  0.58753043  0.29442596    -0.26400
C164        C  0.67977144  0.56239528  0.32560163     0.05700
C165        C  0.65052851  0.56479794  0.35448441    -0.31300
O166        O  0.55933645  0.65869013  0.34435715    -0.23100
C167        C  0.55924065  0.68491206  0.31480842    -0.03100
C168        C  0.58752075  0.68235352  0.28439167    -0.17600
H169        H  0.65167900  0.64717349  0.25207889     0.20400
H170        H  0.58602656  0.59867561  0.38483838     0.18800
H171        H  0.64405815  0.54856208  0.38291254     0.18700
H172        H  0.59385936  0.69990511  0.25707267     0.14600
C173        C  0.17115598  0.48362980  0.21829053     0.30100
C174        C  0.15172995  0.46421960  0.18708608    -0.36300
C175        C  0.12336745  0.48263074  0.16708867     0.16000
C176        C  0.11484622  0.51785133  0.17670069     0.21900
C177        C  0.13405461  0.53717098  0.20834623    -0.34400
C178        C  0.16228935  0.51861775  0.22864597     0.15900
O179        O  0.19917285  0.47185802  0.24030078    -0.26400
C180        C  0.20828119  0.49957376  0.26528901     0.05700
C181        C  0.18616410  0.52935598  0.25961782    -0.31300
O182        O  0.08799490  0.53004216  0.15276391    -0.23100
C183        C  0.07914647  0.50208349  0.12799037    -0.03100
C184        C  0.10008868  0.47186002  0.13560304    -0.17600
H185        H  0.15845579  0.43678914  0.17871739     0.20400
H186        H  0.12767405  0.56476799  0.21626239     0.18800
H187        H  0.18795941  0.55525077  0.27552359     0.18700
H188        H  0.09880487  0.44598876  0.11954144     0.14600
C189        C  0.35128295  0.60307928  0.29440737     0.30100
C190        C  0.36119933  0.63606732  0.27572536    -0.36300
C191        C  0.39268050  0.65165401  0.29239451     0.16000
C192        C  0.41292746  0.63573605  0.32495677     0.21900
C193        C  0.40316106  0.60276092  0.34336136    -0.34400
C194        C  0.37170900  0.58731344  0.32688667     0.15900
O195        O  0.32227897  0.58428490  0.28507050    -0.24400
C196        C  0.32420565  0.55618522  0.31199935     0.05700
C197        C  0.35453753  0.55666388  0.33863733    -0.31300
O198        O  0.44091661  0.65510110  0.33626239    -0.23100
C199        C  0.43876707  0.68391678  0.31073897    -0.03100
C200        C  0.40924326  0.68326161  0.28260966    -0.17600
H201        H  0.34524576  0.64888656  0.25050647     0.20400
H202        H  0.41873485  0.59027582  0.36917984     0.18800
H203        H  0.36272556  0.53774997  0.36361209     0.18700
H204        H  0.40099775  0.70307851  0.25870091     0.14600
C205        C  0.48594040  0.16847368  0.23463961     0.30100
C206        C  0.46636562  0.15172999  0.20114660    -0.36300
C207        C  0.48427935  0.12419593  0.17841226     0.16000
C208        C  0.51922721  0.11394920  0.18760073     0.21900
C209        C  0.53865971  0.13038907  0.22166490    -0.34400
C210        C  0.52057680  0.15781782  0.24472687     0.15900
O211        O  0.47493701  0.19594784  0.25846570    -0.26400
C212        C  0.50272653  0.20305683  0.28454522     0.05700
C213        C  0.53178379  0.17987195  0.27775407    -0.31300
O214        O  0.53104681  0.08840016  0.16095103    -0.23100
C215        C  0.50308820  0.08202518  0.13478474    -0.03100
C216        C  0.47327576  0.10343013  0.14429602    -0.17600
H217        H  0.43923725  0.16000717  0.19289757     0.20400
H218        H  0.56610622  0.12272731  0.22920066     0.18800
H219        H  0.55785006  0.18031470  0.29356140     0.18700
H220        H  0.44745128  0.10399103  0.12789426     0.14600
C221        C  0.39117330  0.33973630  0.32444114     0.30100
C222        C  0.35847216  0.34976954  0.30488477    -0.36300
C223        C  0.34453697  0.38324698  0.31754751     0.16000
C224        C  0.36147975  0.40513957  0.34755901     0.21900
C225        C  0.39388579  0.39492928  0.36746503    -0.34400
C226        C  0.40790888  0.36161921  0.35461580     0.15900
O227        O  0.41011302  0.31062432  0.31560876    -0.26400
C228        C  0.43939025  0.31391110  0.34045254     0.05700
C229        C  0.43927898  0.34510547  0.36561217    -0.31300
O230        O  0.34456043  0.43584741  0.35332857    -0.23100
C231        C  0.31632773  0.43376224  0.32671035    -0.03100
C232        C  0.31487711  0.40149852  0.30364100    -0.17600
H233        H  0.34534113  0.33310379  0.28067844     0.20400
H234        H  0.40766735  0.41215777  0.39050953     0.18800
H235        H  0.45963666  0.35503578  0.38776236     0.18700
H236        H  0.29536997  0.39289968  0.27955930     0.14600
C237        C  0.65650553  0.39360527  0.32255117     0.30100
C238        C  0.64560562  0.36104450  0.30374123    -0.36300
C239        C  0.61270428  0.34705323  0.31910896     0.16000
C240        C  0.59199969  0.36379411  0.35097318     0.21900
C241        C  0.60295119  0.39628224  0.36994522    -0.34400
C242        C  0.63578988  0.41032701  0.35440711     0.15900
O243        O  0.68582986  0.41192965  0.31222701    -0.26400
C244        C  0.68396708  0.44089502  0.33778540     0.05700
C245        C  0.65332129  0.44113333  0.36483623    -0.31300
O246        O  0.56216135  0.34600104  0.36026359    -0.23100
C247        C  0.56363918  0.31746009  0.33392764    -0.03100
C248        C  0.59458994  0.31678657  0.30758340    -0.17600
H249        H  0.66149580  0.34771773  0.27855032     0.20400
H250        H  0.58686296  0.40981195  0.39479897     0.18800
H251        H  0.64452550  0.46107611  0.38842064     0.18700
H252        H  0.60280698  0.29690450  0.28358425     0.14600
C253        C  0.49775052  0.73771790  0.56687604     0.30100
C254        C  0.50183402  0.71539215  0.53005979    -0.36300
C255        C  0.49881895  0.73206011  0.48895356     0.16000
C256        C  0.49231674  0.76824686  0.48419486     0.21900
C257        C  0.48829604  0.79068589  0.52116844    -0.34400
C258        C  0.49131848  0.77396521  0.56247923     0.15900
O259        O  0.49938142  0.72752092  0.60827838    -0.26400
C260        C  0.49407562  0.75752702  0.63112165     0.05700
C261        C  0.48891908  0.78741559  0.60428646    -0.31300
O262        O  0.49063390  0.77800722  0.44244704    -0.23100
C263        C  0.49601087  0.74759620  0.42023879    -0.03100
C264        C  0.50132093  0.71819625  0.44767473    -0.17600
H265        H  0.50694569  0.68693946  0.53326643     0.20400
H266        H  0.48318817  0.81912975  0.51795470     0.18800
H267        H  0.48391026  0.81488602  0.61401464     0.18700
H268        H  0.50665352  0.69058572  0.43892182     0.14600
C269        C  0.51643021  0.84649602  0.83337052     0.30100
C270        C  0.53767348  0.86407225  0.86467999    -0.36300
C271        C  0.52056235  0.89131968  0.88885458     0.16000
C272        C  0.48483560  0.90049894  0.88299028     0.21900
C273        C  0.46370384  0.88330225  0.85100562    -0.34400
C274        C  0.48099287  0.85619941  0.82644017     0.15900
O275        O  0.52654752  0.81892405  0.80912311    -0.26400
C276        C  0.49742284  0.81080607  0.78577243     0.05700
C277        C  0.46831503  0.83350793  0.79480412    -0.31300
O278        O  0.47397388  0.92567394  0.91074455    -0.23100
C279        C  0.50326925  0.93292422  0.93431747    -0.03100
C280        C  0.53307627  0.91245394  0.92193993    -0.17600
H281        H  0.56544548  0.85649867  0.87043139     0.20400
H282        H  0.43561063  0.89011085  0.84618594     0.18800
H283        H  0.44131022  0.83223837  0.78158957     0.18700
H284        H  0.55982393  0.91256291  0.93600512     0.14600
C285        C  0.72984499  0.52264636  0.58153037     0.30100
C286        C  0.70916255  0.52599624  0.54346408    -0.36300
C287        C  0.72775171  0.52169197  0.50355962     0.16000
C288        C  0.76425671  0.51474465  0.50085152     0.21900
C289        C  0.78520635  0.51200839  0.53914853    -0.34400
C290        C  0.76649272  0.51615827  0.57933381     0.15900
O291        O  0.71739051  0.52379388  0.62218177    -0.26400
C292        C  0.74635959  0.51818490  0.64672209     0.05700
C293        C  0.77781199  0.51338929  0.62182641    -0.31300
O294        O  0.77536787  0.50972400  0.45977870    -0.23100
C295        C  0.74541671  0.51339909  0.43609780    -0.03100
C296        C  0.71517874  0.52127918  0.46187116    -0.17600
H297        H  0.68033338  0.53060374  0.54488457     0.20400
H298        H  0.81379123  0.50609745  0.53777843     0.18800
H299        H  0.80481093  0.50764487  0.63317244     0.18700
H300        H  0.68755621  0.52559417  0.45201591     0.14600
C301        C  0.83352893  0.49435235  0.84436825     0.30100
C302        C  0.85341339  0.47246506  0.87267408    -0.36300
C303        C  0.88127573  0.48935033  0.89537566     0.16000
C304        C  0.88904922  0.52533517  0.89063821     0.21900
C305        C  0.86969736  0.54705564  0.86137676    -0.34400
C306        C  0.84177556  0.53010559  0.83855574     0.15900
O307        O  0.80506937  0.48449195  0.82198258    -0.26400
C308        C  0.79490377  0.51416988  0.80120956     0.05700
C309        C  0.81708163  0.54336367  0.80979179    -0.31300
O310        O  0.91471910  0.53596008  0.91737167    -0.23100
C311        C  0.92351593  0.50631617  0.93914499    -0.03100
C312        C  0.90384568  0.47643738  0.92658265    -0.17600
H313        H  0.84691921  0.44446545  0.87760990     0.20400
H314        H  0.87534306  0.57535162  0.85761630     0.18800
H315        H  0.81462397  0.57051526  0.79762135     0.18700
H316        H  0.90516566  0.44947141  0.93964148     0.14600
C317        C  0.63505731  0.60447275  0.72867506     0.30100
C318        C  0.60433342  0.61633590  0.70613244    -0.36300
C319        C  0.58879196  0.64840949  0.72130393     0.16000
C320        C  0.60259146  0.66759487  0.75610723     0.21900
C321        C  0.63342527  0.65580060  0.77856140    -0.34400
C322        C  0.64890171  0.62362328  0.76348959     0.15900
O323        O  0.65362570  0.57504127  0.72024586    -0.26400
C324        C  0.67980344  0.57516129  0.75002818     0.05700
C325        C  0.67817969  0.60488350  0.77784169    -0.31300
O326        O  0.58347473  0.69660339  0.76507091    -0.23100
C327        C  0.55696117  0.69602538  0.73568648    -0.03100
C328        C  0.55903094  0.66659033  0.70753116    -0.17600
H329        H  0.59318206  0.60146214  0.67887203     0.20400
H330        H  0.64442050  0.67054161  0.80602579     0.18800
H331        H  0.69586279  0.61180947  0.80467918     0.18700
H332        H  0.54130958  0.65932520  0.68088681     0.14600
C333        C  0.23602992  0.51288442  0.56585330     0.30100
C334        C  0.21506322  0.51063358  0.52754811    -0.36300
C335        C  0.23428796  0.51082928  0.48742337     0.16000
C336        C  0.27142650  0.51315552  0.48533197     0.21900
C337        C  0.29220045  0.51581744  0.52334020    -0.34400
C338        C  0.27307933  0.51549583  0.56316063     0.15900
O339        O  0.22423447  0.51176555  0.60706017    -0.26400
C340        C  0.25428297  0.51366178  0.63083974     0.05700
C341        C  0.28534618  0.51619758  0.60491251    -0.31300
O342        O  0.28410332  0.51131948  0.44488333    -0.23100
C343        C  0.25483219  0.50786779  0.42034298    -0.03100
C344        C  0.22292161  0.50755436  0.44501407    -0.17600
H345        H  0.18598798  0.50817263  0.52892909     0.20400
H346        H  0.32135888  0.51724824  0.52199415     0.18800
H347        H  0.31327492  0.51785810  0.61457340     0.18700
H348        H  0.19552042  0.50437298  0.43365582     0.14600
C349        C  0.16415255  0.49085317  0.83394635     0.30100
C350        C  0.14643082  0.46995156  0.86584006    -0.36300
C351        C  0.11954127  0.48735139  0.89063327     0.16000
C352        C  0.11085336  0.52300215  0.88476833     0.21900
C353        C  0.12816656  0.54376207  0.85222014    -0.34400
C354        C  0.15486927  0.52621231  0.82705649     0.15900
O355        O  0.19162350  0.48053531  0.80920214    -0.26400
C356        C  0.20006493  0.50947378  0.78560448     0.05700
C357        C  0.17764010  0.53861195  0.79491205    -0.31300
O358        O  0.08574478  0.53409722  0.91279095    -0.23100
C359        C  0.07799379  0.50504651  0.93657541    -0.03100
C360        C  0.09813578  0.47516091  0.92408723    -0.17600
H361        H  0.15363307  0.44221848  0.87153850     0.20400
H362        H  0.12170410  0.57177757  0.84736852     0.18800
H363        H  0.17928379  0.56550378  0.78170967     0.18700
H364        H  0.09742305  0.44847988  0.93805666     0.14600
C365        C  0.34305941  0.61895255  0.75524217     0.30100
C366        C  0.35698982  0.64859267  0.77800607    -0.36300
C367        C  0.38676838  0.66564278  0.75823693     0.16000
C368        C  0.40171646  0.65426829  0.71888574     0.21900
C369        C  0.38763339  0.62496687  0.69601244    -0.34400
C370        C  0.35804125  0.60796544  0.71577483     0.15900
O371        O  0.31594760  0.59835555  0.76797384    -0.26400
C372        C  0.31378118  0.57379149  0.73625882     0.05700
C373        C  0.33920783  0.57877632  0.70283474    -0.31300
O374        O  0.42992703  0.67337197  0.70686008    -0.23100
C375        C  0.43318574  0.69755378  0.73871602    -0.03100
C376        C  0.40695868  0.69409337  0.77160401    -0.17600
H377        H  0.34571328  0.65745784  0.80913136     0.20400
H378        H  0.39927277  0.61574011  0.66523149     0.18800
H379        H  0.34352242  0.56338712  0.67309120     0.18700
H380        H  0.40357538  0.70974252  0.80134189     0.14600
C381        C  0.50511568  0.24258303  0.58714225     0.30100
C382        C  0.50848039  0.21974289  0.55036928    -0.36300
C383        C  0.50732641  0.23655684  0.50887344     0.16000
C384        C  0.50330088  0.27314682  0.50436069     0.21900
C385        C  0.49998061  0.29572750  0.54076753    -0.34400
C386        C  0.50099885  0.27903839  0.58179161     0.15900
O387        O  0.50529295  0.23319931  0.62914396    -0.26400
C388        C  0.50122711  0.26421676  0.65056475     0.05700
C389        C  0.49833850  0.29346398  0.62245188    -0.31300
O390        O  0.50255845  0.28351624  0.46315845    -0.23100
C391        C  0.50606257  0.25338514  0.44030982    -0.03100
C392        C  0.50917750  0.22307673  0.46699141    -0.17600
H393        H  0.51160284  0.19103911  0.55383350     0.20400
H394        H  0.49666003  0.32442077  0.53730749     0.18800
H395        H  0.49471189  0.32153182  0.63004877     0.18700
H396        H  0.51212628  0.19535181  0.45713596     0.14600
C397        C  0.51943966  0.12502223  0.89679501     0.30100
C398        C  0.53861807  0.14334039  0.86380089    -0.36300
C399        C  0.52032780  0.17190455  0.84385475     0.16000
C400        C  0.48582040  0.18203894  0.85602875     0.21900
C401        C  0.46655177  0.16356859  0.88866313    -0.34400
C402        C  0.48460492  0.13475078  0.90811140     0.15900
O403        O  0.53114040  0.09743241  0.91978532    -0.26400
C404        C  0.50320301  0.08925393  0.94560812     0.05700
C405        C  0.47354133  0.11149722  0.93974472    -0.31300
O406        O  0.47425162  0.21007640  0.83399243    -0.23100
C407        C  0.50155089  0.21794047  0.80702235    -0.03100
C408        C  0.53085626  0.19487469  0.81144769    -0.17600
H409        H  0.56581768  0.13583593  0.85432632     0.20400
H410        H  0.43937591  0.17112922  0.89819768     0.18800
H411        H  0.44770203  0.11073239  0.95659774     0.18700
H412        H  0.55640346  0.19555018  0.79395722     0.14600
C413        C  0.34416291  0.40498722  0.75753535     0.30100
C414        C  0.35552139  0.37397594  0.77965245    -0.36300
C415        C  0.38838363  0.35917332  0.76528557     0.16000
C416        C  0.40858016  0.37390284  0.73153439     0.21900
C417        C  0.39724190  0.40483999  0.70943947    -0.34400
C418        C  0.36443926  0.41959616  0.72379633     0.15900
O419        O  0.31453448  0.42349111  0.76576115    -0.26400
C420        C  0.31585220  0.45035128  0.73693121     0.05700
C421        C  0.34636722  0.44914616  0.70988790    -0.31300
O422        O  0.43835512  0.35576211  0.72341073    -0.23100
C423        C  0.43736958  0.32894973  0.75223538    -0.03100
C424        C  0.40682887  0.32973128  0.77926902    -0.17600
H425        H  0.33989338  0.36228059  0.80622422     0.20400
H426        H  0.41293924  0.41661170  0.68297098     0.18800
H427        H  0.35451337  0.46723025  0.68386411     0.18700
H428        H  0.39919512  0.31141497  0.80530713     0.14600
C429        C  0.60916445  0.35782319  0.76333354     0.30100
C430        C  0.64315472  0.36823522  0.77879828    -0.36300
C431        C  0.65590792  0.40143061  0.76351060     0.16000
C432        C  0.63671476  0.42277712  0.73488168     0.21900
C433        C  0.60294864  0.41224369  0.71923379    -0.34400
C434        C  0.59015814  0.37923338  0.73463129     0.15900
O435        O  0.59147009  0.32836247  0.77400437    -0.26400
C436        C  0.56075301  0.33103270  0.75172981     0.05700
C437        C  0.55862487  0.36221057  0.72671183    -0.31300
O438        O  0.65325538  0.45313880  0.72573336    -0.23100
C439        C  0.68350261  0.45139317  0.74885044    -0.03100
C440        C  0.68660659  0.41966399  0.77289587    -0.17600
H441        H  0.65833042  0.35190420  0.80158523     0.20400
H442        H  0.58747888  0.42886520  0.69706524     0.18800
H443        H  0.53700973  0.37166676  0.70602533     0.18700
H444        H  0.70801200  0.41120672  0.79457186     0.14600
loop_ 
_geom_bond_atom_site_label_1 
_geom_bond_atom_site_label_2 
_geom_bond_distance 
_geom_bond_site_symmetry_2 
_ccdc_geom_bond_type 
C1            C2   1.540       .  S
C1            C7   1.539       .  S
C1            C5   1.539       .  S
C1          C407   1.502       .  S
C2            H9   1.085       .  S
C2            C3   1.364       .  D
C3            C4   1.531       .  S
C3          C423   1.477       .  S
C4            C8   1.535       .  S
C4            C6   1.539       .  S
C4           H10   1.101       .  S
C5           H11   1.086       .  S
C5            C6   1.366       .  D
C6          C388   1.481       .  S
C7           H12   1.086       .  S
C7            C8   1.364       .  D
C8          C436   1.479       .  S
C13          C14   1.543       .  S
C13          C19   1.539       .  S
C13          C17   1.544       .  S
C13         C356   1.515       .  S
C14          H21   1.086       .  S
C14          C15   1.366       .  D
C15          C16   1.534       .  S
C15         C372   1.481       .  S
C16          C20   1.533       .  S
C16          C18   1.537       .  S
C16          H22   1.098       .  S
C17          H23   1.086       .  S
C17          C18   1.371       .  D
C18         C340   1.484       .  S
C19          H24   1.086       .  S
C19          C20   1.361       .  D
C20         C420   1.480       .  S
C25          C26   1.532       .  S
C25          C31   1.539       .  S
C25          C29   1.533       .  S
C25         C308   1.502       .  S
C26          H33   1.084       .  S
C26          C27   1.361       .  D
C27          C28   1.540       .  S
C27         C439   1.479       .  S
C28          C32   1.540       .  S
C28          C30   1.540       .  S
C28          H34   1.110       .  S
C29          H35   1.085       .  S
C29          C30   1.366       .  D
C30         C292   1.477       .  S
C31          H36   1.085       .  S
C31          C32   1.370       .  D
C32         C324   1.484       .  S
C37          C38   1.541       .  S
C37          C43   1.537       .  S
C37          C41   1.542       .  S
C37         C276   1.515       .  S
C38          H45   1.086       .  S
C38          C39   1.364       .  D
C39          C40   1.538       .  S
C39         C327   1.484       .  S
C40          C44   1.537       .  S
C40          C42   1.537       .  S
C40          H46   1.108       .  S
C41          H47   1.085       .  S
C41          C42   1.371       .  D
C42         C260   1.483       .  S
C43          H48   1.085       .  S
C43          C44   1.366       .  D
C44         C375   1.478       .  S
C49          C50   1.538       .  S
C49          C55   1.540       .  S
C49          C53   1.540       .  S
C49         C212   1.510       .  S
C50          H57   1.085       .  S
C50          C51   1.367       .  D
C51          C52   1.534       .  S
C51         C247   1.484       .  S
C52          C56   1.537       .  S
C52          C54   1.537       .  S
C52          H58   1.107       .  S
C53          H59   1.085       .  S
C53          C54   1.369       .  D
C54         C391   1.477       .  S
C55          H60   1.086       .  S
C55          C56   1.363       .  D
C56         C228   1.480       .  S
C61          C62   1.538       .  S
C61          C67   1.533       .  S
C61          C65   1.534       .  S
C61         C180   1.496       .  S
C62          H69   1.085       .  S
C62          C63   1.366       .  D
C63          C64   1.536       .  S
C63         C231   1.478       .  S
C64          C68   1.538       .  S
C64          C66   1.537       .  S
C64          H70   1.107       .  S
C65          H71   1.085       .  S
C65          C66   1.365       .  D
C66         C343   1.475       .  S
C67          H72   1.086       .  S
C67          C68   1.362       .  D
C68         C196   1.475       .  S
C73          C74   1.543       .  S
C73          C79   1.543       .  S
C73          C77   1.543       .  S
C73         C148   1.518       .  S
C74          H81   1.086       .  S
C74          C75   1.363       .  D
C75          C76   1.533       .  S
C75         C164   1.480       .  S
C76          C80   1.535       .  S
C76          C78   1.538       .  S
C76          H82   1.097       .  S
C77          H83   1.086       .  S
C77          C78   1.369       .  D
C78         C295   1.485       .  S
C79          H84   1.086       .  S
C79          C80   1.368       .  D
C80         C244   1.487       .  S
C85          C86   1.536       .  S
C85          C91   1.539       .  S
C85          C89   1.537       .  S
C85         C132   1.501       .  S
C86          H93   1.085       .  S
C86          C87   1.365       .  D
C87          C88   1.536       .  S
C87         C199   1.474       .  S
C88          C92   1.533       .  S
C88          C90   1.541       .  S
C88          H94   1.108       .  S
C89          H95   1.086       .  S
C89          C90   1.367       .  D
C90         C263   1.483       .  S
C91          H96   1.085       .  S
C91          C92   1.363       .  D
C92         C167   1.475       .  S
O97        Cu105   2.020   1_556  S
O97         C107   1.278       .  A
O98        Cu105   2.021   1_655  S
O98         C108   1.279       .  A
O99        Cu105   2.009       .  S
O99         C109   1.277       .  A
O100       Cu105   2.001   1_656  S
O100        C110   1.276       .  A
O101       Cu106   1.997   1_656  S
O101        C110   1.277       .  A
O102       Cu106   1.986       .  S
O102        C109   1.275       .  A
O103       Cu106   2.028   1_655  S
O103        C108   1.279       .  A
O104       Cu106   2.022   1_556  S
O104        C107   1.280       .  A
Cu105      Cu106   2.376       .  S
C107        C359   1.476       .  S
C108        C151   1.480       .  S
C109        C183   1.459       .  S
C110        C311   1.461       .  S
O111       Cu119   2.004   1_565  S
O111        C121   1.276       .  A
O112       Cu119   1.992   1_556  S
O112        C122   1.276       .  A
O113       Cu119   2.020   1_566  S
O113        C123   1.278       .  A
O114       Cu119   2.005       .  S
O114        C124   1.277       .  A
O115       Cu120   2.026       .  S
O115        C124   1.279       .  A
O116       Cu120   2.018   1_566  S
O116        C123   1.279       .  A
O117       Cu120   2.010   1_556  S
O117        C122   1.277       .  A
O118       Cu120   1.998   1_565  S
O118        C121   1.277       .  A
Cu119      Cu120   2.377       .  S
C121        C135   1.462       .  S
C122        C404   1.462       .  S
C123        C279   1.475       .  S
C124        C215   1.472       .  S
C125        C130   1.380       .  A
C125        C126   1.399       .  A
C125        O131   1.313       .  A
C126        C127   1.397       .  A
C126        H137   1.082       .  S
C127        C136   1.357       .  A
C127        C128   1.381       .  A
C128        C129   1.404       .  A
C128        O134   1.318       .  A
C129        C130   1.402       .  A
C129        H138   1.082       .  S
C130        C133   1.362       .  A
O131        C132   1.329       .  A
C132        C133   1.392       .  A
C133        H139   1.082       .  S
O134        C135   1.330       .  A
C135        C136   1.388       .  A
C136        H140   1.083       .  S
C141        C146   1.379       .  A
C141        C142   1.404       .  A
C141        O147   1.319       .  A
C142        C143   1.403       .  A
C142        H153   1.082       .  S
C143        C152   1.363       .  A
C143        C144   1.379       .  A
C144        C145   1.409       .  A
C144        O150   1.324       .  A
C145        C146   1.408       .  A
C145        H154   1.082       .  S
C146        C149   1.369       .  A
O147        C148   1.333       .  A
C148        C149   1.396       .  A
C149        H155   1.082       .  S
O150        C151   1.334       .  A
C151        C152   1.392       .  A
C152        H156   1.082       .  S
C157        C162   1.379       .  A
C157        C158   1.405       .  A
C157        O163   1.320       .  A
C158        C159   1.405       .  A
C158        H169   1.082       .  S
C159        C168   1.363       .  A
C159        C160   1.380       .  A
C160        C161   1.398       .  A
C160        O166   1.314       .  A
C161        C162   1.398       .  A
C161        H170   1.082       .  S
C162        C165   1.354       .  A
O163        C164   1.333       .  A
C164        C165   1.392       .  A
C165        H171   1.081       .  S
O166        C167   1.328       .  A
C167        C168   1.395       .  A
C168        H172   1.082       .  S
C173        C178   1.381       .  A
C173        C174   1.398       .  A
C173        O179   1.314       .  A
C174        C175   1.397       .  A
C174        H185   1.083       .  S
C175        C184   1.354       .  A
C175        C176   1.381       .  A
C176        C177   1.401       .  A
C176        O182   1.317       .  A
C177        C178   1.401       .  A
C177        H186   1.083       .  S
C178        C181   1.357       .  A
O179        C180   1.328       .  A
C180        C181   1.391       .  A
C181        H187   1.082       .  S
O182        C183   1.329       .  A
C183        C184   1.388       .  A
C184        H188   1.083       .  S
C189        C194   1.379       .  A
C189        C190   1.404       .  A
C189        O195   1.317       .  A
C190        C191   1.403       .  A
C190        H201   1.082       .  S
C191        C200   1.362       .  A
C191        C192   1.380       .  A
C192        C193   1.399       .  A
C192        O198   1.313       .  A
C193        C194   1.397       .  A
C193        H202   1.082       .  S
C194        C197   1.356       .  A
O195        C196   1.332       .  A
C196        C197   1.390       .  A
C197        H203   1.081       .  S
O198        C199   1.328       .  A
C199        C200   1.394       .  A
C200        H204   1.082       .  S
C205        C210   1.380       .  A
C205        C206   1.402       .  A
C205        O211   1.317       .  A
C206        C207   1.401       .  A
C206        H217   1.082       .  S
C207        C216   1.359       .  A
C207        C208   1.380       .  A
C208        C209   1.407       .  A
C208        O214   1.322       .  A
C209        C210   1.406       .  A
C209        H218   1.082       .  S
C210        C213   1.365       .  A
O211        C212   1.331       .  A
C212        C213   1.394       .  A
C213        H219   1.082       .  S
O214        C215   1.333       .  A
C215        C216   1.390       .  A
C216        H220   1.083       .  S
C221        C226   1.379       .  A
C221        C222   1.404       .  A
C221        O227   1.318       .  A
C222        C223   1.403       .  A
C222        H233   1.082       .  S
C223        C232   1.362       .  A
C223        C224   1.380       .  A
C224        C225   1.401       .  A
C224        O230   1.316       .  A
C225        C226   1.400       .  A
C225        H234   1.082       .  S
C226        C229   1.359       .  A
O227        C228   1.332       .  A
C228        C229   1.392       .  A
C229        H235   1.081       .  S
O230        C231   1.330       .  A
C231        C232   1.394       .  A
C232        H236   1.082       .  S
C237        C242   1.379       .  A
C237        C238   1.404       .  A
C237        O243   1.321       .  A
C238        C239   1.404       .  A
C238        H249   1.082       .  S
C239        C248   1.362       .  A
C239        C240   1.379       .  A
C240        C241   1.404       .  A
C240        O246   1.319       .  A
C241        C242   1.404       .  A
C241        H250   1.082       .  S
C242        C245   1.360       .  A
O243        C244   1.332       .  A
C244        C245   1.397       .  A
C245        H251   1.081       .  S
O246        C247   1.333       .  A
C247        C248   1.394       .  A
C248        H252   1.082       .  S
C253        C258   1.379       .  A
C253        C254   1.401       .  A
C253        O259   1.316       .  A
C254        C255   1.400       .  A
C254        H265   1.082       .  S
C255        C264   1.359       .  A
C255        C256   1.379       .  A
C256        C257   1.407       .  A
C256        O262   1.321       .  A
C257        C258   1.407       .  A
C257        H266   1.082       .  S
C258        C261   1.368       .  A
O259        C260   1.330       .  A
C260        C261   1.395       .  A
C261        H267   1.082       .  S
O262        C263   1.334       .  A
C263        C264   1.392       .  A
C264        H268   1.081       .  S
C269        C274   1.379       .  A
C269        C270   1.403       .  A
C269        O275   1.317       .  A
C270        C271   1.402       .  A
C270        H281   1.082       .  S
C271        C280   1.362       .  A
C271        C272   1.380       .  A
C272        C273   1.408       .  A
C272        O278   1.322       .  A
C273        C274   1.407       .  A
C273        H282   1.082       .  S
C274        C277   1.367       .  A
O275        C276   1.332       .  A
C276        C277   1.396       .  A
C277        H283   1.082       .  S
O278        C279   1.333       .  A
C279        C280   1.391       .  A
C280        H284   1.082       .  S
C285        C290   1.380       .  A
C285        C286   1.398       .  A
C285        O291   1.316       .  A
C286        C287   1.399       .  A
C286        H297   1.082       .  S
C287        C296   1.353       .  A
C287        C288   1.379       .  A
C288        C289   1.407       .  A
C288        O294   1.324       .  A
C289        C290   1.408       .  A
C289        H298   1.082       .  S
C290        C293   1.364       .  A
O291        C292   1.328       .  A
C292        C293   1.396       .  A
C293        H299   1.082       .  S
O294        C295   1.334       .  A
C295        C296   1.393       .  A
C296        H300   1.081       .  S
C301        C306   1.380       .  A
C301        C302   1.399       .  A
C301        O307   1.313       .  A
C302        C303   1.397       .  A
C302        H313   1.083       .  S
C303        C312   1.357       .  A
C303        C304   1.381       .  A
C304        C305   1.403       .  A
C304        O310   1.317       .  A
C305        C306   1.402       .  A
C305        H314   1.083       .  S
C306        C309   1.363       .  A
O307        C308   1.330       .  A
C308        C309   1.392       .  A
C309        H315   1.082       .  S
O310        C311   1.330       .  A
C311        C312   1.388       .  A
C312        H316   1.083       .  S
C317        C322   1.379       .  A
C317        C318   1.404       .  A
C317        O323   1.319       .  A
C318        C319   1.403       .  A
C318        H329   1.082       .  S
C319        C328   1.362       .  A
C319        C320   1.379       .  A
C320        C321   1.405       .  A
C320        O326   1.319       .  A
C321        C322   1.404       .  A
C321        H330   1.082       .  S
C322        C325   1.364       .  A
O323        C324   1.332       .  A
C324        C325   1.395       .  A
C325        H331   1.082       .  S
O326        C327   1.333       .  A
C327        C328   1.393       .  A
C328        H332   1.081       .  S
C333        C338   1.378       .  A
C333        C334   1.407       .  A
C333        O339   1.323       .  A
C334        C335   1.407       .  A
C334        H345   1.082       .  S
C335        C344   1.364       .  A
C335        C336   1.380       .  A
C336        C337   1.396       .  A
C336        O342   1.314       .  A
C337        C338   1.397       .  A
C337        H346   1.082       .  S
C338        C341   1.351       .  A
O339        C340   1.334       .  A
C340        C341   1.393       .  A
C341        H347   1.080       .  S
O342        C343   1.327       .  A
C343        C344   1.395       .  A
C344        H348   1.082       .  S
C349        C354   1.379       .  A
C349        C350   1.404       .  A
C349        O355   1.317       .  A
C350        C351   1.402       .  A
C350        H361   1.082       .  S
C351        C360   1.363       .  A
C351        C352   1.380       .  A
C352        C353   1.408       .  A
C352        O358   1.322       .  A
C353        C354   1.406       .  A
C353        H362   1.082       .  S
C354        C357   1.367       .  A
O355        C356   1.332       .  A
C356        C357   1.395       .  A
C357        H363   1.082       .  S
O358        C359   1.333       .  A
C359        C360   1.391       .  A
C360        H364   1.082       .  S
C365        C370   1.379       .  A
C365        C366   1.405       .  A
C365        O371   1.322       .  A
C366        C367   1.406       .  A
C366        H377   1.082       .  S
C367        C376   1.363       .  A
C367        C368   1.380       .  A
C368        C369   1.399       .  A
C368        O374   1.316       .  A
C369        C370   1.399       .  A
C369        H378   1.082       .  S
C370        C373   1.355       .  A
O371        C372   1.333       .  A
C372        C373   1.392       .  A
C373        H379   1.081       .  S
O374        C375   1.329       .  A
C375        C376   1.394       .  A
C376        H380   1.082       .  S
C381        C386   1.378       .  A
C381        C382   1.409       .  A
C381        O387   1.323       .  A
C382        C383   1.409       .  A
C382        H393   1.082       .  S
C383        C392   1.369       .  A
C383        C384   1.380       .  A
C384        C385   1.395       .  A
C384        O390   1.311       .  A
C385        C386   1.394       .  A
C385        H394   1.083       .  S
C386        C389   1.350       .  A
O387        C388   1.335       .  A
C388        C389   1.390       .  A
C389        H395   1.080       .  S
O390        C391   1.327       .  A
C391        C392   1.396       .  A
C392        H396   1.082       .  S
C397        C402   1.381       .  A
C397        C398   1.403       .  A
C397        O403   1.319       .  A
C398        C399   1.402       .  A
C398        H409   1.082       .  S
C399        C408   1.361       .  A
C399        C400   1.380       .  A
C400        C401   1.399       .  A
C400        O406   1.315       .  A
C401        C402   1.399       .  A
C401        H410   1.083       .  S
C402        C405   1.356       .  A
O403        C404   1.330       .  A
C404        C405   1.389       .  A
C405        H411   1.083       .  S
O406        C407   1.330       .  A
C407        C408   1.392       .  A
C408        H412   1.082       .  S
C413        C418   1.379       .  A
C413        C414   1.404       .  A
C413        O419   1.318       .  A
C414        C415   1.403       .  A
C414        H425   1.082       .  S
C415        C424   1.362       .  A
C415        C416   1.380       .  A
C416        C417   1.401       .  A
C416        O422   1.315       .  A
C417        C418   1.400       .  A
C417        H426   1.082       .  S
C418        C421   1.358       .  A
O419        C420   1.332       .  A
C420        C421   1.393       .  A
C421        H427   1.081       .  S
O422        C423   1.330       .  A
C423        C424   1.393       .  A
C424        H428   1.082       .  S
C429        C434   1.379       .  A
C429        C430   1.403       .  A
C429        O435   1.320       .  A
C430        C431   1.404       .  A
C430        H441   1.082       .  S
C431        C440   1.359       .  A
C431        C432   1.380       .  A
C432        C433   1.399       .  A
C432        O438   1.318       .  A
C433        C434   1.400       .  A
C433        H442   1.082       .  S
C434        C437   1.354       .  A
O435        C436   1.332       .  A
C436        C437   1.392       .  A
C437        H443   1.081       .  S
O438        C439   1.329       .  A
C439        C440   1.396       .  A
C440        H444   1.081       .  S
