geometry optimzed in LAMMPS
_audit_creation_date              2020-11-30 
_audit_creation_method            'lammps2cif' 
_symmetry_space_group_name_H-M    'P1' 
_symmetry_Int_Tables_number       1 
_symmetry_cell_setting            triclinic 
loop_ 
_symmetry_equiv_pos_as_xyz 
  x,y,z 
_cell_length_a                    25.77010415 
_cell_length_b                    29.031507919110805 
_cell_length_c                    29.200274237774106 
_cell_angle_alpha                 89.87218666817294 
_cell_angle_beta                  89.93555873336713 
_cell_angle_gamma                 90.05793043513074 
loop_ 
_atom_site_label 
_atom_site_type_symbol 
_atom_site_fract_x 
_atom_site_fract_y 
_atom_site_fract_z 
_atom_site_charge 
O1          O  0.03555531  0.95557799  0.09054537    -0.78900
C2          C  0.96437771  0.09977056  0.07182340     0.82200
O3          O  0.90753984  0.92522467  0.00830006    -0.80000
O4          O  0.92845000  0.07394146  0.92376529    -0.81500
O5          O  0.10900938  0.03602639  0.96349882    -0.81300
O6          O  0.10113174  0.93800796  0.04463986    -0.79900
Zn7        Zn  0.97963861  0.99773542  0.06233335     1.55700
O8          O  0.04952317  0.08460602  0.93522819    -0.81300
Cd9        Cd  0.06984343  0.97862453  0.98812148     1.59700
Cd10       Cd  0.94799621  0.96309565  0.95817365     1.59600
O11         O  0.07831701  0.93771135  0.93097330    -0.81300
O12         O  0.99522538  0.00031563  0.99601456    -1.91800
Cd13       Cd  0.98523320  0.06358493  0.97198774     1.59900
O14         O  0.99563977  0.92473823  0.91235080    -0.81200
O15         O  0.96758955  0.10215325  0.02815781    -0.79900
C16         C  0.89626489  0.93001766  0.05104697     0.82600
C17         C  0.07763447  0.93302055  0.08301287     0.82300
O18         O  0.97064629  0.06178556  0.09323805    -0.78800
C19         C  0.09544563  0.06896646  0.93646577     0.83100
O20         O  0.91369911  0.96296374  0.07499288    -0.78900
C21         C  0.04458603  0.91993003  0.90481218     0.83200
C22         C  0.89743117  0.04593131  0.90501650     0.83600
O23         O  0.89725577  0.00316470  0.91615038    -0.81400
C24         C  0.06284646  0.37504719  0.10159461     0.79800
N25         N  0.07752042  0.36353530  0.05892504    -0.78500
C26         C  0.10445012  0.32509119  0.05010615     0.82300
N27         N  0.12034030  0.29927859  0.08619934    -0.78400
C28         C  0.10792574  0.30998271  0.13014295     0.82400
N29         N  0.07821139  0.34860835  0.13848965    -0.80100
C30         C  0.92832540  0.21022425  0.13190611     0.79800
N31         N  0.95700784  0.23852521  0.10395521    -0.78500
C32         C  0.98999032  0.21969767  0.07260204     0.82300
N33         N  0.99436166  0.17430555  0.06993712    -0.78400
C34         C  0.96474680  0.14538569  0.09388880     0.82400
N35         N  0.93015088  0.16297493  0.12515244    -0.80100
C36         C  0.84023860  0.13927521  0.45860859     0.79800
N37         N  0.80371391  0.16374534  0.48186930    -0.78500
C38         C  0.78061199  0.20080719  0.46194799     0.82300
N39         N  0.79315861  0.21231043  0.41901067    -0.78400
C40         C  0.82672173  0.18750437  0.39394871     0.82400
N41         N  0.85039888  0.15010996  0.41338961    -0.80100
C42         C  0.59794862  0.11430660  0.57781457     0.79800
N43         N  0.63105478  0.11879702  0.61495594    -0.78500
C44         C  0.66039613  0.15859827  0.61934871     0.82300
N45         N  0.65556819  0.19196133  0.58750823    -0.78400
C46         C  0.62291846  0.18785805  0.55156366     0.82400
N47         N  0.59485432  0.14907508  0.54718504    -0.80100
O48         O  0.72659764  0.30605111  0.15618010    -0.78900
C49         C  0.89095082  0.23129724  0.16522070     0.82200
O50         O  0.70434972  0.18514294  0.23961393    -0.80000
O51         O  0.86234197  0.20959650  0.32068016    -0.81500
O52         O  0.83477827  0.37141216  0.27495006    -0.81300
O53         O  0.71186967  0.36594204  0.20151811    -0.79900
Zn54       Zn  0.77763423  0.25854065  0.18141263     1.55700
O55         O  0.88474623  0.31714856  0.30708543    -0.81300
Cd56       Cd  0.76405680  0.34057711  0.25587253     1.59700
Cd57       Cd  0.73654821  0.23689589  0.27992242     1.59600
O58         O  0.71972173  0.34921476  0.31551140    -0.81300
O59         O  0.78653543  0.27393797  0.24540753    -1.91800
Cd60       Cd  0.86036020  0.25902094  0.26718861     1.59900
O61         O  0.68576969  0.27880463  0.31754109    -0.81200
O62         O  0.90234917  0.23368090  0.20820265    -0.79900
C63         C  0.71402239  0.17237345  0.19857831     0.82600
C64         C  0.70124203  0.34310889  0.16502906     0.82300
O65         O  0.84749944  0.24610565  0.14973416    -0.78800
C66         C  0.86634118  0.35811977  0.30671284     0.83100
O67         O  0.74202002  0.19669500  0.17209192    -0.78900
C68         C  0.68813556  0.32028087  0.33262269     0.83200
C69         C  0.82307258  0.19794887  0.34464426     0.83600
O70         O  0.77691382  0.20543794  0.33108501    -0.81400
C71         C  0.91625988  0.61018255  0.58687518     0.79800
N72         N  0.92071726  0.64830375  0.56054722    -0.78500
C73         C  0.88815680  0.68417097  0.56490770     0.82300
N74         N  0.85008780  0.68153019  0.59643719    -0.78400
C75         C  0.84283120  0.64449269  0.62387119     0.82400
N76         N  0.87665821  0.60752349  0.61943447    -0.80100
C77         C  0.66503463  0.63775137  0.45826967     0.79800
N78         N  0.65429348  0.65436194  0.41529062    -0.78500
C79         C  0.68772071  0.68466875  0.39526040     0.82300
N80         N  0.73003622  0.69872785  0.41795226    -0.78400
C81         C  0.74113902  0.68284092  0.45969662     0.82400
N82         N  0.70919924  0.65151857  0.48022197    -0.80100
O83         O  0.10252265  0.39924058  0.47239820    -0.78900
C84         C  0.00225003  0.40356016  0.59640483     0.82200
O85         O  0.96614595  0.48550093  0.44468398    -0.80000
O86         O  0.97841730  0.55004236  0.60303178    -0.81500
O87         O  0.16631187  0.53548301  0.57404865    -0.81300
O88         O  0.17146830  0.44319661  0.48690603    -0.79900
Zn89       Zn  0.04388513  0.42599901  0.50783256     1.55700
O90         O  0.10439750  0.52777487  0.62786814    -0.81300
Cd91       Cd  0.13446735  0.50385267  0.51325772     1.59700
Cd92       Cd  0.01179425  0.52785420  0.48693144     1.59600
O93         O  0.14373978  0.55248679  0.46001200    -0.81300
O94         O  0.05766393  0.49015982  0.52537646    -1.91800
Cd95       Cd  0.03823028  0.50137066  0.59322065     1.59900
O96         O  0.06054011  0.56947658  0.44643049    -0.81200
O97         O  0.99959248  0.44207112  0.61701185    -0.79900
C98         C  0.95676872  0.44230361  0.44076865     0.82600
C99         C  0.15057345  0.40759096  0.46832398     0.82300
O100        O  0.03943161  0.39506916  0.56904580    -0.78800
C101        C  0.14942492  0.54207432  0.61509302     0.83100
O102        O  0.98078123  0.41325313  0.46561595    -0.78900
C103        C  0.10921932  0.57572789  0.43894608     0.83200
C104        C  0.95275023  0.57249165  0.57320947     0.83600
O105        O  0.96214083  0.56759508  0.53014684    -0.81400
C106        C  0.43859302  0.80671345  0.13740280     0.79800
N107        N  0.46866179  0.78005810  0.10943244    -0.78500
C108        C  0.50999023  0.79948103  0.08768054     0.82300
N109        N  0.52077896  0.84353291  0.09441536    -0.78400
C110        C  0.48979721  0.87133211  0.11782254     0.82400
N111        N  0.44678095  0.85352327  0.13887229    -0.80100
C112        C  0.60379765  0.69416231  0.12795962     0.79800
N113        N  0.57251328  0.65587444  0.12880383    -0.78500
C114        C  0.56255182  0.63401740  0.08825256     0.82300
N115        N  0.58289883  0.65042702  0.04876674    -0.78400
C116        C  0.61002776  0.68953003  0.04704787     0.82400
N117        N  0.62206972  0.71007174  0.08739066    -0.80100
C118        C  0.10096096  0.09813110  0.31920879     0.79800
N119        N  0.08943669  0.06109392  0.29261459    -0.78500
C120        C  0.06367209  0.02459608  0.31043662     0.82300
N121        N  0.05174177  0.02358344  0.35488429    -0.78400
C122        C  0.06326043  0.05840760  0.38321175     0.82400
N123        N  0.08777877  0.09709128  0.36551802    -0.80100
C124        C  0.09382812  0.90059150  0.12148301     0.79800
N125        N  0.06135931  0.90341577  0.15763638    -0.78500
C126        C  0.06778476  0.87899679  0.19618972     0.82300
N127        N  0.10784335  0.84953782  0.19867257    -0.78400
C128        C  0.14283580  0.84478540  0.16444589     0.82400
N129        N  0.13658051  0.87114539  0.12461536    -0.80100
O130        O  0.35301283  0.77690022  0.14532663    -0.78900
C131        C  0.22165602  0.66633781  0.14562080     0.82200
O132        O  0.18956617  0.80211301  0.22066441    -0.80000
O133        O  0.22992229  0.64905850  0.29952466    -0.81500
O134        O  0.39207879  0.67641526  0.28234960    -0.81300
O135        O  0.40628926  0.77332304  0.20623920    -0.79900
Zn136      Zn  0.28246664  0.75124860  0.16654166     1.55700
O137        O  0.33997897  0.62293549  0.25166414    -0.81300
Cd138      Cd  0.36206847  0.74077628  0.25814822     1.59700
Cd139      Cd  0.24104313  0.76688179  0.26487324     1.59600
O140        O  0.35693169  0.78256082  0.31737012    -0.81300
O141        O  0.29120170  0.73027644  0.23086798    -1.91800
Cd142      Cd  0.27284099  0.66223690  0.23957122     1.59900
O143        O  0.27918724  0.81421240  0.30619209    -0.81200
O144        O  0.22200778  0.64682288  0.18492055    -0.79900
C145        C  0.18839593  0.81460708  0.17839484     0.82600
C146        C  0.39682719  0.78476861  0.16454163     0.82300
O147        O  0.25822381  0.69364473  0.13313494    -0.78800
C148        C  0.37962758  0.63409759  0.27577930     0.83100
O149        O  0.22412861  0.80104187  0.15128084    -0.78900
C150        C  0.32032552  0.80931616  0.33003425     0.83200
C151        C  0.20396326  0.67866276  0.32184931     0.83600
O152        O  0.20430016  0.72138062  0.31024014    -0.81400
O153        O  0.27738158  0.18189354  0.14871801    -0.78900
C154        C  0.13329728  0.28055529  0.16576983     0.82200
O155        O  0.32318915  0.30118928  0.23371577    -0.80000
O156        O  0.15464735  0.27985928  0.32143910    -0.81500
O157        O  0.17872547  0.12253246  0.28214664    -0.81300
O158        O  0.28916702  0.12750008  0.20192616    -0.79900
Zn159      Zn  0.24007105  0.23721770  0.17900780     1.55700
O160        O  0.11682888  0.17615494  0.29113805    -0.81300
Cd161      Cd  0.24546324  0.15724972  0.25770075     1.59700
Cd162      Cd  0.27149808  0.26595321  0.27665231     1.59600
O163        O  0.29056424  0.15353090  0.31623212    -0.81300
O164        O  0.22594753  0.22336686  0.24306140    -1.91800
Cd165      Cd  0.15182187  0.23807204  0.26311498     1.59900
O166        O  0.30590023  0.22798346  0.32980720    -0.81200
O167        O  0.11787012  0.27769783  0.20768500    -0.79900
C168        C  0.31967998  0.31262684  0.19147008     0.82600
C169        C  0.29678803  0.14315079  0.16122869     0.82300
O170        O  0.17340171  0.25887133  0.15153648    -0.78800
C171        C  0.13398960  0.13487826  0.29722091     0.83100
O172        O  0.28642833  0.29353685  0.16570307    -0.78900
C173        C  0.30958692  0.18528672  0.34093690     0.83200
C174        C  0.18842250  0.31026404  0.33122293     0.83600
O175        O  0.22693832  0.31768069  0.30509567    -0.81400
C176        C  0.58157103  0.86943749  0.60273889     0.79800
N177        N  0.58251839  0.84094310  0.64054322    -0.78500
C178        C  0.61977893  0.80701268  0.64240080     0.82300
N179        N  0.65135338  0.80047188  0.60596026    -0.78400
C180        C  0.64431890  0.82309250  0.56606977     0.82400
N181        N  0.61375323  0.86073459  0.56702091    -0.80100
C182        C  0.44411331  0.72458154  0.63914411     0.79800
N183        N  0.47957062  0.74936206  0.61359004    -0.78500
C184        C  0.50951391  0.72692895  0.58179522     0.82300
N185        N  0.50280789  0.68207184  0.57542942    -0.78400
C186        C  0.46945395  0.65720239  0.60005317     0.82400
N187        N  0.43909851  0.67800737  0.63206763    -0.80100
O188        O  0.52043697  0.89306596  0.54928315    -0.78900
C189        C  0.36738194  0.89951343  0.47216027     0.82200
O190        O  0.53301841  0.99653281  0.42583960    -0.80000
O191        O  0.37112775  0.04466086  0.45836898    -0.81500
O192        O  0.41971029  0.01554187  0.62019302    -0.81300
O193        O  0.52526219  0.93530061  0.61298118    -0.79900
Zn194      Zn  0.47846049  0.92390987  0.50023676     1.55700
O195        O  0.36503336  0.04320152  0.56767279    -0.81300
Cd196      Cd  0.48713924  0.99474097  0.58678522     1.59700
Cd197      Cd  0.50308109  0.02917190  0.48338666     1.59600
O198        O  0.54194460  0.04911973  0.59613821    -0.81300
O199        O  0.46310877  0.98543713  0.52080838    -1.91800
Cd200      Cd  0.38570688  0.99855872  0.51170751     1.59900
O201        O  0.55636006  0.06694033  0.52306742    -0.81200
O202        O  0.34763674  0.93696336  0.48820531    -0.79900
C203        C  0.53431257  0.95405536  0.41464808     0.82600
C204        C  0.53788303  0.89976841  0.58970938     0.82300
O205        O  0.41525275  0.89013750  0.47723806    -0.78800
C206        C  0.38764035  0.04651426  0.60663651     0.83100
O207        O  0.51912186  0.92276502  0.44174881    -0.78900
C208        C  0.56521061  0.07328901  0.56584441     0.83200
C209        C  0.40188600  0.07733995  0.44844318     0.83600
O210        O  0.45011020  0.07569833  0.45837189    -0.81400
C211        C  0.40075522  0.39656916  0.58761281     0.79800
N212        N  0.40911494  0.35964470  0.56061352    -0.78500
C213        C  0.38119063  0.32089978  0.56398459     0.82300
N214        N  0.34441983  0.31863901  0.59663569    -0.78400
C215        C  0.33396766  0.35403666  0.62527057     0.82400
N216        N  0.36225960  0.39452995  0.62092850    -0.80100
C217        C  0.19472824  0.32496178  0.37860603     0.79800
N218        N  0.16744967  0.35938772  0.39958900    -0.78500
C219        C  0.18171712  0.37338707  0.44273763     0.82300
N220        N  0.22193783  0.35214442  0.46411625    -0.78400
C221        C  0.24736930  0.31710447  0.44307747     0.82400
N222        N  0.23437536  0.30457639  0.40056154    -0.80100
C223        C  0.65287707  0.33248771  0.37120335     0.79800
N224        N  0.62389980  0.29711760  0.38713963    -0.78500
C225        C  0.58694883  0.30375975  0.41883475     0.82300
N226        N  0.57869383  0.34598596  0.43544272    -0.78400
C227        C  0.60677478  0.38244548  0.42138926     0.82400
N228        N  0.64460358  0.37634478  0.38832904    -0.80100
C229        C  0.38292673  0.12205640  0.43222307     0.79800
N230        N  0.40982873  0.15785565  0.44908461    -0.78500
C231        C  0.40291702  0.20063308  0.43345744     0.82300
N232        N  0.36661070  0.20847545  0.40121677    -0.78400
C233        C  0.33936658  0.17353163  0.38254495     0.82400
N234        N  0.34795441  0.12913803  0.39745950    -0.80100
C235        C  0.58444563  0.58617079  0.80215380     0.79800
N236        N  0.56724937  0.55075787  0.77518779    -0.78500
C237        C  0.53809871  0.51630685  0.79401161     0.82300
N238        N  0.52929296  0.51577466  0.83910464    -0.78400
C239        C  0.54680364  0.54885776  0.86674510     0.82400
N240        N  0.57364199  0.58540155  0.84847994    -0.80100
C241        C  0.60559734  0.42276970  0.63675851     0.79800
N242        N  0.64728767  0.39603664  0.64907811    -0.78500
C243        C  0.63945338  0.36121308  0.68049586     0.82300
N244        N  0.59198102  0.35507277  0.69939710    -0.78400
C245        C  0.55180091  0.38269172  0.68895454     0.82400
N246        N  0.55916253  0.41541014  0.65686869    -0.80100
O247        O  0.57524405  0.49558233  0.61680529    -0.78900
C248        C  0.46672642  0.60993575  0.58472721     0.82200
O249        O  0.43999869  0.43974545  0.52869307    -0.80000
O250        O  0.47427729  0.58390896  0.43461723    -0.81500
O251        O  0.64621753  0.56502828  0.49299756    -0.81300
O252        O  0.62801108  0.46203527  0.56654931    -0.79900
Zn253      Zn  0.50953393  0.51443746  0.58428307     1.55700
O254        O  0.58093005  0.61511708  0.48140613    -0.81300
Cd255      Cd  0.60702412  0.50312243  0.50927979     1.59700
Cd256      Cd  0.48884773  0.47522553  0.48297459     1.59600
O257        O  0.62142852  0.45719387  0.45488886    -0.81300
O258        O  0.53027277  0.51769490  0.51871241    -1.91800
Cd259      Cd  0.51227279  0.57988190  0.49601761     1.59900
O260        O  0.54098322  0.42917091  0.45220316    -0.81200
O261        O  0.45956205  0.60606659  0.54193542    -0.79900
C262        C  0.43066429  0.43784355  0.57190586     0.82600
C263        C  0.60639412  0.46319580  0.60591006     0.82300
O264        O  0.48796849  0.57792698  0.60795139    -0.78800
C265        C  0.62906892  0.60439771  0.47977069     0.83100
O266        O  0.45255639  0.46566575  0.59958243    -0.78900
C267        C  0.58933570  0.42656231  0.44189544     0.83200
C268        C  0.45246810  0.55137469  0.41341222     0.83600
O269        O  0.45122429  0.51027752  0.42961737    -0.81400
C270        C  0.32233790  0.11448715  0.12475744     0.79800
N271        N  0.29285465  0.10679875  0.08685809    -0.78500
C272        C  0.31250240  0.08291700  0.05120993     0.82300
N273        N  0.36157930  0.06935894  0.05169731    -0.78400
C274        C  0.39361208  0.07837315  0.08628014     0.82400
N275        N  0.37433380  0.10096646  0.12455288    -0.80100
C276        C  0.13558917  0.08612235  0.90487022     0.79800
N277        N  0.13144661  0.12315184  0.87556967    -0.78500
C278        C  0.17439881  0.13557320  0.85023270     0.82300
N279        N  0.21985046  0.11292195  0.85672552    -0.78400
C280        C  0.22354027  0.07748306  0.88625181     0.82400
N281        N  0.18078798  0.06366069  0.90829043    -0.80100
C282        C  0.12257605  0.43627451  0.90579973     0.79800
N283        N  0.16545771  0.46327491  0.90065473    -0.78500
C284        C  0.19900551  0.45609483  0.86557347     0.82300
N285        N  0.18888194  0.42201074  0.83567434    -0.78400
C286        C  0.14663268  0.39507896  0.83864494     0.82400
N287        N  0.11227946  0.40227992  0.87390333    -0.80100
C288        C  0.18279526  0.56594936  0.65006979     0.79800
N289        N  0.19264706  0.61281173  0.64836084    -0.78500
C290        C  0.21802998  0.63365758  0.68430487     0.82300
N291        N  0.23250185  0.60820510  0.72050219    -0.78400
C292        C  0.22344049  0.56284178  0.72274515     0.82400
N293        N  0.19763370  0.54161992  0.68797982    -0.80100
O294        O  0.28444083  0.36065045  0.69701882    -0.78900
C295        C  0.14193232  0.36059366  0.80107421     0.82200
O296        O  0.30083108  0.27520953  0.81932129    -0.80000
O297        O  0.14020045  0.20300004  0.81106865    -0.81500
O298        O  0.14736252  0.23894818  0.64983052    -0.81300
O299        O  0.25882445  0.31169558  0.64256375    -0.79900
Zn300      Zn  0.23477916  0.33855907  0.75061989     1.55700
O301        O  0.09386276  0.24082653  0.71087453    -0.81300
Cd302      Cd  0.22024308  0.25701281  0.67428348     1.59700
Cd303      Cd  0.26279505  0.23591645  0.77146520     1.59600
O304        O  0.26965516  0.20011442  0.65965644    -0.81300
O305        O  0.21318199  0.27405279  0.74030903    -1.91800
Cd306      Cd  0.14120743  0.26109577  0.76673534     1.59900
O307        O  0.31166168  0.20278587  0.72586067    -0.81200
O308        O  0.12384139  0.32005323  0.80810394    -0.79900
C309        C  0.30107152  0.31733032  0.83189655     0.82600
C310        C  0.28888866  0.34405865  0.65656315     0.82300
O311        O  0.16612082  0.36998279  0.76370511    -0.78800
C312        C  0.10316846  0.23185245  0.66854336     0.83100
O313        O  0.27581938  0.34777787  0.80999361    -0.78900
C314        C  0.30750886  0.18778937  0.68484497     0.83200
C315        C  0.17854367  0.17708384  0.82095392     0.83600
O316        O  0.22413716  0.18607211  0.80665639    -0.81400
O317        O  0.59538673  0.88714767  0.98601397    -0.78900
C318        C  0.49408400  0.91679953  0.09803865     0.82200
O319        O  0.48325615  0.00110827  0.93149312    -0.80000
O320        O  0.47965619  0.04907061  0.10392563    -0.81500
O321        O  0.67657750  0.02762913  0.05888454    -0.81300
O322        O  0.66425896  0.93372804  0.97763628    -0.79900
Zn323      Zn  0.53318292  0.93078418  0.00278310     1.55700
O324        O  0.60979356  0.04274740  0.10570133    -0.81300
Cd325      Cd  0.63585210  0.99909069  0.00201985     1.59700
Cd326      Cd  0.51543839  0.03404684  0.98748854     1.59600
O327        O  0.64507785  0.05250389  0.95378363    -0.81300
O328        O  0.55929854  0.99134268  0.01894110    -1.91800
Cd329      Cd  0.54386058  0.00849391  0.08481837     1.59900
O330        O  0.56602027  0.08259830  0.96404321    -0.81200
O331        O  0.52465739  0.94635948  0.11575830    -0.79900
C332        C  0.47696808  0.95932469  0.91885747     0.82600
C333        C  0.64288980  0.89373608  0.97393163     0.82300
O334        O  0.48283870  0.91791001  0.05549483    -0.78800
C335        C  0.65779545  0.04643134  0.09497251     0.83100
O336        O  0.49103206  0.92614757  0.94411832    -0.78900
C337        C  0.61298046  0.08573253  0.95007093     0.83200
C338        C  0.44768993  0.06393044  0.07458916     0.83600
O339        O  0.45786143  0.06033271  0.03161034    -0.81400
C340        C  0.87375142  0.39139514  0.34563882     0.79800
N341        N  0.91326509  0.39328914  0.37786118    -0.78500
C342        C  0.91323988  0.42922604  0.40941425     0.82300
N343        N  0.87613529  0.46202544  0.40655970    -0.78400
C344        C  0.83875293  0.46046428  0.37454417     0.82400
N345        N  0.83754728  0.42460659  0.34578226    -0.80100
C346        C  0.81795423  0.63540734  0.18947288     0.79800
N347        N  0.81615815  0.60736379  0.22566490    -0.78500
C348        C  0.83429435  0.56458001  0.22419658     0.82300
N349        N  0.85566779  0.54790628  0.18529536    -0.78400
C350        C  0.85861505  0.57494085  0.14713277     0.82400
N351        N  0.83949682  0.61974148  0.14896581    -0.80100
C352        C  0.69058566  0.06330811  0.13288048     0.79800
N353        N  0.68131319  0.03633107  0.16941042    -0.78500
C354        C  0.66403375  0.05459825  0.20873375     0.82300
N355        N  0.67445814  0.09933991  0.21721743    -0.78400
C356        C  0.69599902  0.12617439  0.18432073     0.82400
N357        N  0.69910062  0.10951219  0.14025473    -0.80100
C358        C  0.54395596  0.94235026  0.36646240     0.79800
N359        N  0.52259456  0.97087171  0.33527643    -0.78500
C360        C  0.52621014  0.96218308  0.29012295     0.82300
N361        N  0.55210450  0.92394023  0.27608818    -0.78400
C362        C  0.57529082  0.89541958  0.30603145     0.82400
N363        N  0.57093114  0.90433856  0.35208451    -0.80100
C364        C  0.12320970  0.61779285  0.41277600     0.79800
N365        N  0.09246603  0.65378171  0.42280945    -0.78500
C366        C  0.10050577  0.69537127  0.40445898     0.82300
N367        N  0.13878372  0.70119270  0.37406912    -0.78400
C368        C  0.16941644  0.66617546  0.36089743     0.82400
N369        N  0.16243164  0.62309806  0.38061351    -0.80100
C370        C  0.85005969  0.83486953  0.36434148     0.79800
N371        N  0.88885103  0.80401858  0.36878020    -0.78500
C372        C  0.92591865  0.81010442  0.40029131     0.82300
N373        N  0.92539342  0.84700167  0.42722199    -0.78400
C374        C  0.88858149  0.87932816  0.42306524     0.82400
N375        N  0.84972297  0.87396742  0.39118104    -0.80100
C376        C  0.87162638  0.89068412  0.07387477     0.79800
N377        N  0.83437685  0.89223814  0.10752628    -0.78500
C378        C  0.81270159  0.85137409  0.12199639     0.82300
N379        N  0.82931277  0.81094418  0.10367482    -0.78400
C380        C  0.86753867  0.80989744  0.07185973     0.82400
N381        N  0.88841853  0.84997375  0.05845497    -0.80100
C382        C  0.69249578  0.80018195  0.89553715     0.79800
N383        N  0.66307030  0.83589365  0.91219814    -0.78500
C384        C  0.67385151  0.85393194  0.95483545     0.82300
N385        N  0.71447962  0.83597737  0.97936173    -0.78400
C386        C  0.74177988  0.79911965  0.96282918     0.82400
N387        N  0.73089512  0.78259104  0.92127315    -0.80100
O388        O  0.69086240  0.74950518  0.35088579    -0.78900
C389        C  0.81034924  0.82257730  0.33035588     0.82200
O390        O  0.62047772  0.85665414  0.24409618    -0.80000
O391        O  0.80416454  0.83158442  0.19754644    -0.81500
O392        O  0.74346881  0.67310719  0.21365534    -0.81300
O393        O  0.67435699  0.68385337  0.31424750    -0.79900
Zn394      Zn  0.70181359  0.80158244  0.30994989     1.55700
O395        O  0.81384196  0.71682285  0.20485534    -0.81300
Cd396      Cd  0.68651991  0.71010653  0.24803439     1.59700
Cd397      Cd  0.67227049  0.81283528  0.20456679     1.59600
O398        O  0.62331963  0.69890146  0.20708865    -0.81300
O399        O  0.71031797  0.77605176  0.24993156    -1.91800
Cd400      Cd  0.78614318  0.77736915  0.23839328     1.59900
O401        O  0.63557241  0.76160800  0.16414400    -0.81200
O402        O  0.82311537  0.79362796  0.29927528    -0.79900
C403        C  0.61328272  0.86174326  0.28771272     0.82600
C404        C  0.68066379  0.70675061  0.35105664     0.82300
O405        O  0.76405894  0.83697183  0.33418947    -0.78800
C406        C  0.78975430  0.67875392  0.19886050     0.83100
O407        O  0.64083281  0.84069503  0.31671699    -0.78900
C408        C  0.61949415  0.71996129  0.16916339     0.83200
C409        C  0.77973699  0.84610096  0.16283580     0.83600
O410        O  0.72997909  0.84312376  0.15973924    -0.81400
C411        C  0.43854678  0.55724072  0.36505139     0.79800
N412        N  0.41828740  0.59596342  0.34478924    -0.78500
C413        C  0.41011469  0.59642127  0.29806638     0.82300
N414        N  0.42415617  0.55885747  0.27271172    -0.78400
C415        C  0.44671100  0.52200095  0.29363838     0.82400
N416        N  0.45238175  0.52159631  0.33903075    -0.80100
C417        C  0.35718997  0.34732521  0.17354620     0.79800
N418        N  0.34546978  0.38101270  0.14148433    -0.78500
C419        C  0.38119807  0.41554953  0.13333004     0.82300
N420        N  0.42602532  0.41555772  0.15712176    -0.78400
C421        C  0.43734157  0.38337564  0.18885905     0.82400
N422        N  0.40263877  0.34954761  0.19663568    -0.80100
O423        O  0.40267870  0.60787771  0.97322881    -0.78900
C424        C  0.52197234  0.59979505  0.08026420     0.82200
O425        O  0.53375539  0.50128301  0.93112442    -0.80000
O426        O  0.52761295  0.45527203  0.10271175    -0.81500
O427        O  0.35230993  0.45577389  0.06433010    -0.81300
O428        O  0.33385635  0.56319857  0.98624591    -0.79900
Zn429      Zn  0.46460428  0.57199034  0.99255343     1.55700
O430        O  0.40046250  0.49285079  0.11523981    -0.81300
Cd431      Cd  0.37295531  0.49959816  0.00718824     1.59700
Cd432      Cd  0.49540140  0.46905323  0.98577877     1.59600
O433        O  0.36367566  0.45260543  0.95317198    -0.81300
O434        O  0.45044109  0.51256463  0.01801900    -1.91800
Cd435      Cd  0.47206547  0.50758282  0.08593478     1.59900
O436        O  0.44378771  0.42309913  0.95616790    -0.81200
O437        O  0.50906752  0.56825720  0.10839333    -0.79900
C438        C  0.53194776  0.54224400  0.91491993     0.82600
C439        C  0.35416805  0.60103888  0.97106484     0.82300
O440        O  0.50457142  0.60083817  0.03967520    -0.78800
C441        C  0.37443616  0.45716188  0.10358923     0.83100
O442        O  0.50798362  0.57386607  0.93559024    -0.78900
C443        C  0.39622561  0.42105374  0.94346096     0.83200
C444        C  0.55397208  0.43071253  0.07499955     0.83600
O445        O  0.54627163  0.43428473  0.03159103    -0.81400
O446        O  0.99252815  0.03662109  0.42714628    -0.78900
C447        C  0.89816020  0.91921981  0.45246918     0.82200
O448        O  0.86643232  0.09349554  0.52472795    -0.80000
O449        O  0.89205763  0.93126604  0.59698762    -0.81500
O450        O  0.07852604  0.97104281  0.56019751    -0.81300
O451        O  0.06320816  0.05249444  0.46756280    -0.79900
Zn452      Zn  0.93244494  0.01683829  0.46463707     1.55700
O453        O  0.01730256  0.91718385  0.56875640    -0.81300
Cd454      Cd  0.03337305  0.02613099  0.53283364     1.59700
Cd455      Cd  0.90790624  0.04535452  0.56830584     1.59600
O456        O  0.03821798  0.07783789  0.58057920    -0.81300
O457        O  0.95580971  0.00913233  0.52809265    -1.91800
Cd458      Cd  0.94682244  0.94421508  0.54704007     1.59900
O459        O  0.95787439  0.08424710  0.61032084    -0.81200
O460        O  0.91779760  0.90982987  0.49150939    -0.79900
C461        C  0.86579657  0.09903170  0.48092008     0.82600
C462        C  0.03881915  0.05176627  0.42918880     0.82300
O463        O  0.89679345  0.96017685  0.43689553    -0.78800
C464        C  0.06441298  0.93053210  0.57240507     0.83100
O465        O  0.88826608  0.07079615  0.45479037    -0.78900
C466        C  0.00542751  0.09717474  0.60695795     0.83200
C467        C  0.85878354  0.95678893  0.61650258     0.83600
O468        O  0.85808945  0.00060218  0.60901706    -0.81400
C469        C  0.31565012  0.82366910  0.37830945     0.79800
N470        N  0.34726651  0.85383855  0.40141814    -0.78500
C471        C  0.33496565  0.86614822  0.44584490     0.82300
N472        N  0.29244817  0.84729990  0.46618186    -0.78400
C473        C  0.26261491  0.81656881  0.44302051     0.82400
N474        N  0.27400710  0.80572460  0.39965311    -0.80100
C475        C  0.10279019  0.89388824  0.58249066     0.79800
N476        N  0.14249591  0.89599146  0.61448410    -0.78500
C477        C  0.17537999  0.85863735  0.61855712     0.82300
N478        N  0.16775651  0.82190735  0.59103868    -0.78400
C479        C  0.12936684  0.81969855  0.56000692     0.82400
N480        N  0.09711308  0.85587189  0.55612086    -0.80100
C481        C  0.33432198  0.32842143  0.87154343     0.79800
N482        N  0.34223670  0.37178740  0.88944284    -0.78500
C483        C  0.38011811  0.37727515  0.92225117     0.82300
N484        N  0.40951131  0.34093346  0.93461039    -0.78400
C485        C  0.40184687  0.29907231  0.91674903     0.82400
N486        N  0.36404005  0.29294254  0.88596935    -0.80100
C487        C  0.62716798  0.13132637  0.93197774     0.79800
N488        N  0.66404233  0.14024803  0.89912413    -0.78500
C489        C  0.66541812  0.18345487  0.87961848     0.82300
N490        N  0.62906880  0.21501336  0.89132250    -0.78400
C491        C  0.59327344  0.20575264  0.92376600     0.82400
N492        N  0.59318762  0.16443638  0.94375375    -0.80100
C493        C  0.06244877  0.21065836  0.63999765     0.79800
N494        N  0.03946931  0.23612547  0.60620754    -0.78500
C495        C  0.00425263  0.21572718  0.57809927     0.82300
N496        N  0.99300233  0.17141629  0.58354739    -0.78400
C497        C  0.01511271  0.14549788  0.61562958     0.82400
N498        N  0.05191041  0.16427209  0.64357902    -0.80100
C499        C  0.95661836  0.37386021  0.59240529     0.79800
N500        N  0.94522778  0.36080115  0.54923316    -0.78500
C501        C  0.91008657  0.32772162  0.54032914     0.82300
N502        N  0.88432109  0.30842707  0.57656008    -0.78400
C503        C  0.89468973  0.32087502  0.62045315     0.82400
N504        N  0.93132615  0.35409290  0.62863746    -0.80100
C505        C  0.58934140  0.39197909  0.09021825     0.79800
N506        N  0.62472645  0.39118284  0.12667262    -0.78500
C507        C  0.65752341  0.35311623  0.13107918     0.82300
N508        N  0.65363644  0.31918891  0.09979939    -0.78400
C509        C  0.62123987  0.32055866  0.06392539     0.82400
N510        N  0.58928960  0.35676242  0.06001890    -0.80100
C511        C  0.84591789  0.38289101  0.95019612     0.79800
N512        N  0.80656207  0.36371429  0.97498602    -0.78500
C513        C  0.77271046  0.33464284  0.95407043     0.82300
N514        N  0.77722052  0.32580676  0.90935812    -0.78400
C515        C  0.81537342  0.34400101  0.88393189     0.82400
N516        N  0.85089746  0.37234529  0.90426398    -0.80100
O517        O  0.82135974  0.27924778  0.83980579    -0.78900
C518        C  0.69777353  0.19578172  0.83983028     0.82200
O519        O  0.83552219  0.15121570  0.73321457    -0.80000
O520        O  0.67379660  0.18234434  0.69620794    -0.81500
O521        O  0.72708023  0.34616830  0.70419273    -0.81300
O522        O  0.80747082  0.34449720  0.80163026    -0.79900
Zn523      Zn  0.80159790  0.22583034  0.80219108     1.55700
O524        O  0.66593193  0.29253369  0.71516831    -0.81300
Cd525      Cd  0.79036053  0.31420964  0.73677398     1.59700
Cd526      Cd  0.80492628  0.20759581  0.69368800     1.59600
O527        O  0.85030121  0.32369929  0.69107814    -0.81300
O528        O  0.77475447  0.24596515  0.74316115    -1.91800
Cd529      Cd  0.69932882  0.23351650  0.74143451     1.59900
O530        O  0.85212475  0.25541665  0.65486207    -0.81200
O531        O  0.67484474  0.21588286  0.80653656    -0.79900
C532        C  0.85412394  0.15108129  0.77413711     0.82600
C533        C  0.81935448  0.32289445  0.83843250     0.82300
O534        O  0.74694057  0.19048000  0.84053307    -0.78800
C535        C  0.68053894  0.33175000  0.69981442     0.83100
O536        O  0.86496294  0.18855825  0.79362024    -0.78900
C537        C  0.86526262  0.29829870  0.65810021     0.83200
C538        C  0.69505435  0.17110985  0.65856483     0.83600
O539        O  0.74314425  0.18080495  0.65103693    -0.81400
C540        C  0.12458598  0.85579138  0.81773559     0.79800
N541        N  0.11300551  0.88608317  0.85245751    -0.78500
C542        C  0.06168809  0.89179744  0.86514988     0.82300
N543        N  0.02451606  0.86640356  0.84443126    -0.78400
C544        C  0.03658672  0.83553902  0.81157290     0.82400
N545        N  0.08612029  0.83147527  0.79840795    -0.80100
C546        C  0.92409141  0.60674214  0.88148118     0.79800
N547        N  0.96477941  0.63092895  0.86420611    -0.78500
C548        C  0.95873312  0.65700594  0.82611939     0.82300
N549        N  0.91263690  0.65802227  0.80529618    -0.78400
C550        C  0.87068256  0.63789133  0.82366746     0.82400
N551        N  0.87572430  0.61152612  0.86234308    -0.80100
C552        C  0.84534481  0.11049520  0.80381914     0.79800
N553        N  0.87657988  0.09862419  0.83991098    -0.78500
C554        C  0.86197903  0.06349079  0.86888564     0.82300
N555        N  0.81532066  0.04266163  0.86280349    -0.78400
C556        C  0.78294663  0.05648444  0.82869728     0.82400
N557        N  0.79912210  0.08940867  0.79915734    -0.80100
C558        C  0.78378777  0.86686751  0.68225877     0.79800
N559        N  0.75378400  0.89392128  0.70833575    -0.78500
C560        C  0.75752596  0.93997137  0.70689519     0.82300
N561        N  0.79090534  0.96033390  0.67672724    -0.78400
C562        C  0.82080516  0.93405442  0.64844230     0.82400
N563        N  0.81803006  0.88666971  0.65204806    -0.80100
O564        O  0.77054147  0.68701511  0.64911741    -0.78900
C565        C  0.62271843  0.76947470  0.67696136     0.82200
O566        O  0.79724905  0.80229190  0.73063792    -0.80000
O567        O  0.65048087  0.76740742  0.82958137    -0.81500
O568        O  0.66287882  0.60861378  0.76384282    -0.81300
O569        O  0.78541496  0.62399698  0.69001703    -0.79900
Zn570      Zn  0.71945412  0.72911110  0.68062085     1.55700
O571        O  0.60757948  0.66482939  0.78577217    -0.81300
Cd572      Cd  0.73303960  0.64355033  0.74604158     1.59700
Cd573      Cd  0.76924187  0.74786057  0.77249754     1.59600
O574        O  0.78229127  0.63172833  0.80066533    -0.81300
O575        O  0.71536733  0.71176277  0.74323411    -1.91800
Cd576      Cd  0.64409508  0.72881807  0.76862813     1.59900
O577        O  0.82323026  0.69940122  0.79383928    -0.81200
O578        O  0.61163692  0.77492676  0.71918281    -0.79900
C579        C  0.77912838  0.81724590  0.69261039     0.82600
C580        C  0.79665464  0.65014565  0.65587631     0.82300
O581        O  0.64498518  0.73236566  0.66423325    -0.78800
C582        C  0.61991639  0.62195473  0.78230251     0.83100
O583        O  0.74687434  0.79352932  0.66981553    -0.78900
C584        C  0.82189882  0.65703335  0.80662198     0.83200
C585        C  0.69182248  0.78254751  0.84826989     0.83600
O586        O  0.73643561  0.77708900  0.82993805    -0.81400
O587        O  0.02342301  0.60416401  0.04887387    -0.78900
C588        C  0.93425597  0.57735947  0.92137081     0.82200
O589        O  0.89458448  0.51080689  0.10550141    -0.80000
O590        O  0.91595863  0.43385327  0.94608124    -0.81500
O591        O  0.09654994  0.46647639  0.97932319    -0.81300
O592        O  0.08857939  0.55503862  0.05997606    -0.79900
Zn593      Zn  0.95964797  0.56936290  0.02510402     1.55700
O594        O  0.03628326  0.45410391  0.92600605    -0.81300
Cd595      Cd  0.05428516  0.49484982  0.03632288     1.59700
Cd596      Cd  0.93304198  0.46420821  0.05925563     1.59600
O597        O  0.05928955  0.45356933  0.09401220    -0.81300
O598        O  0.97868475  0.50387385  0.01950851    -1.91800
Cd599      Cd  0.97068784  0.48277258  0.95438106     1.59900
O600        O  0.98406678  0.41586578  0.09196728    -0.81200
O601        O  0.94651319  0.53580608  0.91338397    -0.79900
C602        C  0.88633224  0.55470201  0.10643335     0.82600
C603        C  0.06950404  0.59531529  0.06267115     0.82300
O604        O  0.93675448  0.59481263  0.96163027    -0.78800
C605        C  0.08298182  0.45173236  0.93953471     0.83100
O606        O  0.90447991  0.58111923  0.07522826    -0.78900
C607        C  0.03257936  0.41773504  0.10206391     0.83200
C608        C  0.88287078  0.41536515  0.97229996     0.83600
O609        O  0.88145803  0.42455182  0.01552616    -0.81400
C610        C  0.38546946  0.08910646  0.63558385     0.79800
N611        N  0.34524993  0.12050566  0.63874990    -0.78500
C612        C  0.35016172  0.15698857  0.66903183     0.82300
N613        N  0.39340663  0.16046884  0.69502546    -0.78400
C614        C  0.43154284  0.12908200  0.69320989     0.82400
N615        N  0.42725812  0.09430015  0.66305393    -0.80100
C616        C  0.45897215  0.95224448  0.87146541     0.79800
N617        N  0.43181264  0.91500970  0.85490807    -0.78500
C618        C  0.41392674  0.91600994  0.81031644     0.82300
N619        N  0.42310095  0.95392962  0.78398220    -0.78400
C620        C  0.45210992  0.98906783  0.80055474     0.82400
N621        N  0.46893273  0.98796256  0.84369988    -0.80100
C622        C  0.10186618  0.63400792  0.07875082     0.79800
N623        N  0.09289063  0.67528441  0.05862631    -0.78500
C624        C  0.12443712  0.71172546  0.06590672     0.82300
N625        N  0.16398004  0.70671451  0.09586008    -0.78400
C626        C  0.17446912  0.66624607  0.11663486     0.82400
N627        N  0.14366067  0.62878553  0.10767928    -0.80100
C628        C  0.32283623  0.63886929  0.94980838     0.79800
N629        N  0.28393179  0.65913583  0.97429219    -0.78500
C630        C  0.25927587  0.69685776  0.95703709     0.82300
N631        N  0.27210452  0.71321928  0.91569806    -0.78400
C632        C  0.30997740  0.69422980  0.89039356     0.82400
N633        N  0.33632727  0.65687193  0.90746947    -0.80100
O634        O  0.24317519  0.81365561  0.64688844    -0.78900
C635        C  0.40555035  0.74779157  0.66938105     0.82200
O636        O  0.20895312  0.70103638  0.72761203    -0.80000
O637        O  0.35551334  0.72695331  0.82470055    -0.81500
O638        O  0.33842818  0.89215632  0.76976607    -0.81300
O639        O  0.22783164  0.87745210  0.68689016    -0.79900
Zn640      Zn  0.29229077  0.76983405  0.67695530     1.55700
O641        O  0.39326715  0.83690987  0.79438594    -0.81300
Cd642      Cd  0.27153606  0.85673084  0.74683521     1.59700
Cd643      Cd  0.23794079  0.75356339  0.76907736     1.59600
O644        O  0.21441592  0.86812204  0.79736459    -0.81300
O645        O  0.29352095  0.78922653  0.74024804    -1.91800
Cd646      Cd  0.36340497  0.77387740  0.76784376     1.59900
O647        O  0.18026069  0.79805027  0.79122599    -0.81200
O648        O  0.41030098  0.74617500  0.71329004    -0.79900
C649        C  0.22708446  0.68358709  0.69083872     0.82600
C650        C  0.21855152  0.85148636  0.65234736     0.82300
O651        O  0.36509977  0.76462607  0.65035906    -0.78800
C652        C  0.37990248  0.87941386  0.79088729     0.83100
O653        O  0.26139241  0.70484326  0.66753476    -0.78900
C654        C  0.17681815  0.84031612  0.80330305     0.83200
C655        C  0.31309739  0.71323401  0.84327729     0.83600
O656        O  0.26905639  0.72203102  0.82542667    -0.81400
C657        C  0.17719881  0.77196401  0.03342884    -0.09500
C658        C  0.13076295  0.74672430  0.02905921     0.06700
C659        C  0.12226768  0.72828565  0.98515581    -0.03300
C660        C  0.16523845  0.70998036  0.96232217    -0.07800
C661        C  0.21521767  0.71852673  0.97953884     0.05800
C662        C  0.22159214  0.75372858  0.01225813    -0.02800
Br663      Br  0.28879881  0.77454871  0.03122958    -0.02500
H664        H  0.18231094  0.79470911  0.06241773     0.09700
H665        H  0.15970516  0.68826928  0.93257983     0.07700
Br666      Br  0.05400206  0.71310580  0.96416147    -0.02900
C667        C  0.42497194  0.11178210  0.77247423    -0.09500
C668        C  0.45924783  0.11849788  0.73571468     0.06700
C669        C  0.50167885  0.08851390  0.73222595    -0.03300
C670        C  0.49860228  0.04475213  0.75184165    -0.07800
C671        C  0.45501667  0.03326438  0.77802861     0.05800
C672        C  0.42028555  0.06802364  0.79139727    -0.02800
Br673      Br  0.36372021  0.05619894  0.83247506    -0.02500
H674        H  0.39447406  0.13651940  0.77933716     0.09700
H675        H  0.52940439  0.01998044  0.74639246     0.07700
Br676      Br  0.56022098  0.10508972  0.69666592    -0.02900
C677        C  0.74115339  0.98196410  0.82683358    -0.09500
C678        C  0.73731380  0.02859708  0.81590610     0.06700
C679        C  0.71193879  0.04022962  0.77479425    -0.03300
C680        C  0.71467577  0.00946809  0.73823953    -0.07800
C681        C  0.73595019  0.96573384  0.74553201     0.05800
C682        C  0.74387275  0.95026660  0.79127017    -0.02800
Br683      Br  0.77078758  0.89074372  0.80790550    -0.02500
H684        H  0.75492648  0.97161532  0.86035969     0.09700
H685        H  0.70427669  0.02075450  0.70408593     0.07700
Br686      Br  0.68610667  0.10099259  0.76454491    -0.02900
C687        C  0.97639181  0.78090258  0.84526335    -0.09500
C688        C  0.00492526  0.79412852  0.80663448     0.06700
C689        C  0.01736906  0.76080160  0.77312753    -0.03300
C690        C  0.00734200  0.71438295  0.78190212    -0.07800
C691        C  0.98430130  0.70107539  0.82328086     0.05800
C692        C  0.96661290  0.73498015  0.85397196    -0.02800
Br693      Br  0.92294177  0.72100077  0.90558502    -0.02500
H694        H  0.96452538  0.80586857  0.87068069     0.09700
H695        H  0.01563825  0.68890176  0.75585747     0.07700
Br696      Br  0.04775323  0.77705572  0.71512086    -0.02900
C697        C  0.67868529  0.33252804  0.95934935    -0.09500
C698        C  0.72647812  0.31709804  0.97620066     0.06700
C699        C  0.72759972  0.28062766  0.00782487    -0.03300
C700        C  0.68109564  0.26699059  0.02848090    -0.07800
C701        C  0.63684591  0.29492555  0.02253540     0.05800
C702        C  0.63300510  0.31938709  0.98094296    -0.02800
Br703      Br  0.56932136  0.34544707  0.95873304    -0.02500
H704        H  0.67709239  0.35640351  0.93077817     0.09700
H705        H  0.68288038  0.24303231  0.05695493     0.07700
Br706      Br  0.79099346  0.25088545  0.02531002    -0.02900
C707        C  0.89647493  0.25671766  0.50147802    -0.09500
C708        C  0.91721670  0.30083537  0.49663462     0.06700
C709        C  0.97011637  0.29811560  0.48422385    -0.03300
C710        C  0.00168319  0.27091290  0.51256122    -0.07800
C711        C  0.97648253  0.23931822  0.54166751     0.05800
C712        C  0.92343686  0.22818327  0.53209572    -0.02800
Br713      Br  0.88160918  0.18807383  0.56951331    -0.02500
H714        H  0.85551012  0.25180871  0.49737090     0.09700
H715        H  0.04358386  0.27225428  0.51012463     0.07700
Br716      Br  0.99431198  0.31560552  0.42492633    -0.02900
C717        C  0.46580360  0.25614272  0.96155104    -0.09500
C718        C  0.44463633  0.26700406  0.91878260     0.06700
C719        C  0.47226896  0.25703714  0.87838221    -0.03300
C720        C  0.52228657  0.24022150  0.88155948    -0.07800
C721        C  0.54450096  0.23073847  0.92422959     0.05800
C722        C  0.51491354  0.23644507  0.96451202    -0.02800
Br723      Br  0.53950820  0.21916838  0.02413755    -0.02500
H724        H  0.44458223  0.26408337  0.99262550     0.09700
H725        H  0.54330084  0.23299319  0.85019138     0.07700
Br726      Br  0.44576336  0.26773248  0.81765750    -0.02900
C727        C  0.22014416  0.76489944  0.49869853    -0.09500
C728        C  0.21600860  0.79710838  0.46323073     0.06700
C729        C  0.16651680  0.81199311  0.44925946    -0.03300
C730        C  0.12462204  0.80502545  0.47876396    -0.07800
C731        C  0.13439012  0.78628357  0.52223649     0.05800
C732        C  0.17665682  0.75579108  0.52569610    -0.02800
Br733      Br  0.18246188  0.71391083  0.57603903    -0.02500
H734        H  0.25710513  0.74911926  0.50679973     0.09700
H735        H  0.08868932  0.82317052  0.47205030     0.07700
Br736      Br  0.15577214  0.84655237  0.39421482    -0.02900
C737        C  0.44324857  0.43799516  0.29067583    -0.09500
C738        C  0.46026582  0.47931067  0.27042440     0.06700
C739        C  0.49606987  0.47724991  0.23426586    -0.03300
C740        C  0.50603849  0.43450131  0.21389024    -0.07800
C741        C  0.47411192  0.39667723  0.22516480     0.05800
C742        C  0.45290392  0.39608738  0.26957375    -0.02800
Br743      Br  0.42441150  0.34176712  0.29761269    -0.02500
H744        H  0.42062372  0.43839373  0.32198329     0.09700
H745        H  0.52963299  0.43323402  0.18376030     0.07700
Br746      Br  0.53123487  0.53102013  0.21206798    -0.02900
C747        C  0.83289840  0.73814726  0.04429669    -0.09500
C748        C  0.87284706  0.77045480  0.04006358     0.06700
C749        C  0.88169154  0.78567746  0.99481187    -0.03300
C750        C  0.83726420  0.79720081  0.96963953    -0.07800
C751        C  0.78866763  0.78127502  0.98501287     0.05800
C752        C  0.78848475  0.74501207  0.01760326    -0.02800
Br753      Br  0.73391972  0.70138355  0.02398572    -0.02500
H754        H  0.83135065  0.71525764  0.07362337     0.09700
H755        H  0.84033191  0.81951737  0.93995074     0.07700
Br756      Br  0.94747959  0.81203384  0.97755257    -0.02900
C757        C  0.04872438  0.75408155  0.36701313    -0.09500
C758        C  0.06009873  0.72958832  0.40726519     0.06700
C759        C  0.02758158  0.73307072  0.44587019    -0.03300
C760        C  0.98343039  0.75997674  0.44293075    -0.07800
C761        C  0.97048576  0.78114993  0.40155746     0.05800
C762        C  0.00368262  0.77935176  0.36371344    -0.02800
Br763      Br  0.99011182  0.81152875  0.30738226    -0.02500
H764        H  0.07332778  0.75168228  0.33699790     0.09700
H765        H  0.95870946  0.76393975  0.47267912     0.07700
Br766      Br  0.04082471  0.70224224  0.50300143    -0.02900
C767        C  0.58644429  0.05990520  0.25964348    -0.09500
C768        C  0.61540085  0.03482980  0.22709261     0.06700
C769        C  0.59048835  0.99732257  0.20456839    -0.03300
C770        C  0.53843730  0.98827720  0.21404844    -0.07800
C771        C  0.52096811  0.00070036  0.25742624     0.05800
C772        C  0.53801045  0.04361589  0.27395218    -0.02800
Br773      Br  0.50204866  0.07520663  0.32210809    -0.02500
H774        H  0.60160936  0.09119115  0.27474114     0.09700
H775        H  0.52121890  0.95800673  0.19869842     0.07700
Br776      Br  0.62653771  0.95021255  0.17032094    -0.02900
C777        C  0.86142065  0.53442772  0.34509855    -0.09500
C778        C  0.82075749  0.50351153  0.35439138     0.06700
C779        C  0.77941159  0.50049607  0.32304513    -0.03300
C780        C  0.78600783  0.51778757  0.27889017    -0.07800
C781        C  0.83246516  0.53968702  0.26681274     0.05800
C782        C  0.86894535  0.55047741  0.30077609    -0.02800
Br783      Br  0.93086767  0.58496344  0.28750406    -0.02500
H784        H  0.89251866  0.53936686  0.36955853     0.09700
H785        H  0.75528651  0.51373358  0.25390324     0.07700
Br786      Br  0.71902866  0.46425858  0.33624623    -0.02900
C787        C  0.21524314  0.56111206  0.80687668    -0.09500
C788        C  0.23390434  0.54018634  0.76668143     0.06700
C789        C  0.26414943  0.50024533  0.77036059    -0.03300
C790        C  0.26778629  0.47808513  0.81280943    -0.07800
C791        C  0.23528141  0.49203011  0.84919634     0.05800
C792        C  0.21716853  0.53771971  0.84863330    -0.02800
Br793      Br  0.18820234  0.56701277  0.90170333    -0.02500
H794        H  0.19623823  0.59437386  0.80534686     0.09700
H795        H  0.28632341  0.44461332  0.81409678     0.07700
Br796      Br  0.29815657  0.47366503  0.71835666    -0.02900
C797        C  0.28889544  0.11418833  0.93075193    -0.09500
C798        C  0.27048000  0.07224424  0.91324838     0.06700
C799        C  0.27366076  0.03253582  0.94080086    -0.03300
C800        C  0.28122652  0.03742156  0.98768987    -0.07800
C801        C  0.28904618  0.08120273  0.00665938     0.05800
C802        C  0.29582319  0.11937398  0.97759698    -0.02800
Br803      Br  0.31608545  0.17889717  0.00013800    -0.02500
H804        H  0.28971094  0.14482909  0.90949599     0.09700
H805        H  0.28193381  0.00703463  0.00931295     0.07700
Br806      Br  0.25676533  0.97285745  0.91700698    -0.02900
C807        C  0.54077144  0.43245054  0.79044029    -0.09500
C808        C  0.52435960  0.47390933  0.77014348     0.06700
C809        C  0.48892521  0.47193732  0.73362542    -0.03300
C810        C  0.47893100  0.42910639  0.71321684    -0.07800
C811        C  0.51170074  0.39175251  0.72407634     0.05800
C812        C  0.53090488  0.39061337  0.76920205    -0.02800
Br813      Br  0.55996460  0.33630348  0.79676585    -0.02500
H814        H  0.56301247  0.43268802  0.82192811     0.09700
H815        H  0.45649133  0.42826389  0.68194532     0.07700
Br816      Br  0.45533019  0.52585187  0.71022253    -0.02900
C817        C  0.46694059  0.24209291  0.38959525    -0.09500
C818        C  0.44877006  0.22931750  0.43305755     0.06700
C819        C  0.48067241  0.23513475  0.47175663    -0.03300
C820        C  0.52697787  0.25928040  0.46683666    -0.07800
C821        C  0.54501549  0.27132447  0.42314946     0.05800
C822        C  0.51543890  0.26116038  0.38413861    -0.02800
Br823      Br  0.53706813  0.27461410  0.32242631    -0.02500
H824        H  0.44450486  0.23499137  0.35902417     0.09700
H825        H  0.54861233  0.26900693  0.49703523     0.07700
Br826      Br  0.46403982  0.21053585  0.53114518    -0.02900
C827        C  0.33477298  0.25886802  0.52586238    -0.09500
C828        C  0.37496968  0.29171031  0.52299371     0.06700
C829        C  0.38312677  0.31326043  0.48001216    -0.03300
C830        C  0.34112570  0.31747257  0.45064575    -0.07800
C831        C  0.29380538  0.29765725  0.46282753     0.05800
C832        C  0.29182986  0.26403388  0.49727367    -0.02800
Br833      Br  0.22970033  0.22989690  0.50986805    -0.02500
H834        H  0.33061488  0.23783139  0.55637662     0.09700
H835        H  0.34374036  0.34032447  0.42129430     0.07700
Br836      Br  0.44395546  0.34835481  0.46458876    -0.02900
C837        C  0.64487641  0.74599187  0.53483023    -0.09500
C838        C  0.63874654  0.79291790  0.52445629     0.06700
C839        C  0.59104545  0.80043443  0.50226253    -0.03300
C840        C  0.54631350  0.78250777  0.52381260    -0.07800
C841        C  0.55328147  0.74684600  0.55605157     0.08200
C842        C  0.60245168  0.72384463  0.55559318    -0.02800
Br843      Br  0.61638401  0.66616318  0.58585888    -0.02500
H844        H  0.68318371  0.73191951  0.54123583     0.09700
H845        H  0.50790724  0.79456468  0.51461480     0.07700
Br846      Br  0.58769714  0.84047236  0.45093671    -0.02900
C847        C  0.08464201  0.90354749  0.27380785    -0.09500
C848        C  0.04789324  0.89950389  0.23857197     0.06700
C849        C  0.00782656  0.93248963  0.23568381    -0.03300
C850        C  0.01332066  0.97426389  0.25881555    -0.07800
C851        C  0.05738824  0.98191900  0.28571568     0.05800
C852        C  0.09125083  0.94548880  0.29559143    -0.02800
Br853      Br  0.15077002  0.95354378  0.33432095    -0.02500
H854        H  0.11417040  0.87748665  0.27878322     0.09700
H855        H  0.98435202  0.00097305  0.25480852     0.07700
Br856      Br  0.94892538  0.92365197  0.19644025    -0.02900
C857        C  0.51640506  0.74541758  0.02185397    -0.09500
C858        C  0.53968898  0.77763945  0.05131100     0.06700
C859        C  0.59218562  0.79108929  0.04208484    -0.03300
C860        C  0.62123264  0.76338504  0.01256775    -0.07800
C861        C  0.60210932  0.71906248  0.00553385     0.05800
C862        C  0.54920495  0.71977057  0.99333941    -0.02800
Br863      Br  0.52113297  0.67767612  0.95003233    -0.02500
H864        H  0.47481648  0.73978104  0.02171611     0.09700
H865        H  0.66246606  0.76900740  0.01144817     0.07700
Br866      Br  0.63156472  0.83487058  0.07758678    -0.02900
C867        C  0.88350270  0.69183930  0.48369082    -0.09500
C868        C  0.88039121  0.71531984  0.52557298     0.06700
C869        C  0.83905021  0.74656015  0.53017009    -0.03300
C870        C  0.79230926  0.73563283  0.50864908    -0.07800
C871        C  0.79025506  0.69762312  0.47913444     0.05800
C872        C  0.83720582  0.67952301  0.46226203    -0.02800
Br873      Br  0.83946664  0.63589119  0.41307255    -0.02500
H874        H  0.91856281  0.67332618  0.47455333     0.09700
H875        H  0.75790891  0.75604072  0.51584588     0.07700
Br876      Br  0.83989204  0.79286282  0.57668644    -0.02900
C877        C  0.68818722  0.18928520  0.45396829    -0.09500
C878        C  0.72848062  0.21372613  0.47520169     0.06700
C879        C  0.71614076  0.25051410  0.50453871    -0.03300
C880        C  0.66495750  0.25467193  0.51971533    -0.07800
C881        C  0.63104198  0.21771381  0.51151159     0.05800
C882        C  0.63786565  0.19367054  0.47016697    -0.02800
Br883      Br  0.58527276  0.15498899  0.44372921    -0.02500
H884        H  0.69636029  0.16477734  0.42694200     0.09700
H885        H  0.65669376  0.27849933  0.54728274     0.07700
Br886      Br  0.76639177  0.29245975  0.52819371    -0.02900
C887        C  0.04287849  0.31031160  0.99182187    -0.09500
C888        C  0.09480490  0.30238997  0.00508030     0.06700
C889        C  0.10741724  0.25551306  0.00591384    -0.03300
C890        C  0.07148692  0.22706306  0.02823391    -0.07800
C891        C  0.02191374  0.24523804  0.03969810     0.05800
C892        C  0.00514507  0.28489107  0.01599289    -0.02800
Br893      Br  0.93483462  0.30593930  0.01771168    -0.02500
H894        H  0.03204007  0.34315405  0.97699825     0.09700
H895        H  0.08397536  0.19355800  0.04027058     0.07700
Br896      Br  0.17792512  0.23588939  0.00013874    -0.02900
loop_ 
_geom_bond_atom_site_label_1 
_geom_bond_atom_site_label_2 
_geom_bond_distance 
_geom_bond_site_symmetry_2 
_ccdc_geom_bond_type 
O1           C17   1.286       .  A
O1           Zn7   2.063   1_455  S
C2           O18   1.277       .  A
C2           O15   1.279       .  A
C2           C34   1.474       .  S
O3           C16   1.289       .  A
O3          Cd10   2.104   1_554  S
O4           C22   1.266       .  A
O4          Cd13   2.054       .  S
O5           C19   1.288       .  A
O5           Cd9   2.074   1_545  S
O6           C17   1.281       .  A
O6           Cd9   2.182   1_554  S
Zn7          O18   2.082   1_565  S
Zn7          O20   2.009       .  S
Zn7          O12   1.979   1_564  S
O8           C19   1.268       .  A
O8          Cd13   2.064   1_455  S
Cd9          O11   2.062       .  S
Cd9          O12   2.037   1_465  S
Cd10         O14   2.132       .  S
Cd10         O23   2.138   1_565  S
Cd10         O12   1.969   1_565  S
O11          C21   1.268       .  A
O12         Cd13   1.982       .  S
Cd13         O15   2.039   1_556  S
O14          C21   1.288   1_655  A
C16          O20   1.268       .  A
C16         C376   1.465       .  S
C17         C124   1.523       .  S
C19         C276   1.471       .  S
C21         C542   1.485       .  S
C22          O23   1.283       .  A
C22         C554   1.486       .  S
C24         C607   1.465       .  S
C24          N25   1.345       .  A
C24          N29   1.380       .  A
N25          C26   1.340       .  A
C26         C888   1.493       .  S
C26          N27   1.356       .  A
N27          C28   1.359       .  A
C28         C154   1.496       .  S
C28          N29   1.380       .  A
C30          C49   1.500       .  S
C30          N31   1.372       .  A
C30          N35   1.387       .  A
N31          C32   1.364       .  A
C32         C891   1.464   1_655  S
C32          N33   1.325       .  A
N33          C34   1.331       .  A
C34          N35   1.375       .  A
C36         C461   1.491       .  S
C36          N37   1.362       .  A
C36          N41   1.381       .  A
N37          C38   1.360       .  A
C38         C878   1.448       .  S
C38          N39   1.336       .  A
N39          C40   1.343       .  A
C40          C69   1.474       .  S
C40          N41   1.368       .  A
C42         C208   1.501       .  S
C42          N43   1.387       .  A
C42          N47   1.350       .  A
N43          C44   1.387       .  A
C44         C538   1.498       .  S
C44          N45   1.347       .  A
N45          C46   1.351       .  A
C46         C881   1.469       .  S
C46          N47   1.344       .  A
O48          C64   1.286       .  A
O48         Zn54   2.044       .  S
C49          O65   1.282       .  A
C49          O62   1.291       .  A
O50          C63   1.279       .  A
O50         Cd57   2.083       .  S
O51          C69   1.275       .  A
O51         Cd60   2.119       .  S
O52          C66   1.293       .  A
O52         Cd56   2.106       .  S
O53          C64   1.286       .  A
O53         Cd56   2.207       .  S
Zn54         O65   2.056       .  S
Zn54         O67   2.035       .  S
Zn54         O59   1.936       .  S
O55          C66   1.281       .  A
O55         Cd60   2.147       .  S
Cd56         O58   2.097       .  S
Cd56         O59   2.044       .  S
Cd57         O61   2.099       .  S
Cd57         O70   2.037       .  S
Cd57         O59   1.955       .  S
O58          C68   1.270       .  A
O59         Cd60   2.053       .  S
Cd60         O62   2.164       .  S
O61          C68   1.284       .  A
C63          O67   1.270       .  A
C63         C356   1.480       .  S
C64         C507   1.529       .  S
C66         C340   1.506       .  S
C68         C223   1.490       .  S
C69          O70   1.273       .  A
C71         C104   1.498       .  S
C71          N72   1.351       .  A
C71          N76   1.396       .  A
N72          C73   1.344       .  A
C73         C868   1.474       .  S
C73          N74   1.347       .  A
N74          C75   1.352       .  A
C75         C580   1.521       .  S
C75          N76   1.390       .  A
C77         C265   1.478       .  S
C77          N78   1.372       .  A
C77          N82   1.367       .  A
N78          C79   1.361       .  A
C79         C404   1.452       .  S
C79          N80   1.340       .  A
N80          C81   1.334       .  A
C81         C871   1.453       .  S
C81          N82   1.363       .  A
O83          C99   1.267       .  A
O83         Zn89   1.990       .  S
C84         O100   1.272       .  A
C84          O97   1.273   1_455  A
C84         C499   1.462   1_455  S
O85          C98   1.282       .  A
O85         Cd92   2.103   1_655  S
O86         C104   1.273       .  A
O86         Cd95   2.112   1_655  S
O87         C101   1.289       .  A
O87         Cd91   2.163       .  S
O88          C99   1.286       .  A
O88         Cd91   2.147       .  S
Zn89        O100   2.002       .  S
Zn89        O102   2.075   1_455  S
Zn89         O94   1.965       .  S
O90         C101   1.287       .  A
O90         Cd95   2.127       .  S
Cd91         O93   2.111       .  S
Cd91         O94   2.049       .  S
Cd92         O96   2.103       .  S
Cd92        O105   2.137   1_455  S
Cd92         O94   1.963       .  S
O93         C103   1.275       .  A
O94         Cd95   2.069       .  S
Cd95         O97   2.104   1_455  S
O96         C103   1.286       .  A
C98         O102   1.273       .  A
C98         C342   1.498       .  S
C99         C219   1.481       .  S
C101        C288   1.506       .  S
C103        C364   1.483       .  S
C104        O105   1.288       .  A
C106        C146   1.479       .  S
C106        N107   1.367       .  A
C106        N111   1.376       .  A
N107        C108   1.361       .  A
C108        C858   1.455       .  S
C108        N109   1.324       .  A
N109        C110   1.326       .  A
C110        C318   1.444       .  S
C110        N111   1.367       .  A
C112        C408   1.475       .  S
C112        N113   1.373       .  A
C112        N117   1.354       .  A
N113        C114   1.369       .  A
C114        C424   1.461       .  S
C114        N115   1.352       .  A
N115        C116   1.333       .  A
C116        C861   1.497       .  S
C116        N117   1.358       .  A
C118        C171   1.506       .  S
C118        N119   1.361       .  A
C118        N123   1.394       .  A
N119        C120   1.353       .  A
C120        C851   1.444   1_545  S
C120        N121   1.334       .  A
N121        C122   1.341       .  A
C122        C462   1.494       .  S
C122        N123   1.387       .  A
C124        N125   1.349       .  A
C124        N129   1.398       .  A
N125        C126   1.340       .  A
C126        C848   1.467       .  S
C126        N127   1.343       .  A
N127        C128   1.353       .  A
C128        C145   1.521       .  S
C128        N129   1.400       .  A
O130        C146   1.282       .  A
O130       Zn136   2.058       .  S
C131        O147   1.283       .  A
C131        O144   1.279       .  A
C131        C626   1.482       .  S
O132        C145   1.286       .  A
O132       Cd139   2.115       .  S
O133        C151   1.270       .  A
O133       Cd142   2.104       .  S
O134        C148   1.284       .  A
O134       Cd138   2.142       .  S
O135        C146   1.285       .  A
O135       Cd138   2.116       .  S
Zn136       O147   2.036       .  S
Zn136       O149   2.133       .  S
Zn136       O141   1.986       .  S
O137        C148   1.283       .  A
O137       Cd142   2.103       .  S
Cd138       O140   2.119       .  S
Cd138       O141   2.016       .  S
Cd139       O143   2.078       .  S
Cd139       O152   2.094       .  S
Cd139       O141   1.947       .  S
O140        C150   1.277       .  A
O141       Cd142   2.046       .  S
Cd142       O144   2.114       .  S
O143        C150   1.277       .  A
C145        O149   1.277       .  A
C148        C413   1.496       .  S
C150        C469   1.476       .  S
C151        O152   1.285       .  A
C151        C368   1.490       .  S
O153        C169   1.284       .  A
O153       Zn159   2.072       .  S
C154        O170   1.280       .  A
C154        O167   1.289       .  A
O155        C168   1.280       .  A
O155       Cd162   2.093       .  S
O156        C174   1.272       .  A
O156       Cd165   2.094       .  S
O157        C171   1.285       .  A
O157       Cd161   2.115       .  S
O158        C169   1.286       .  A
O158       Cd161   2.161       .  S
Zn159       O170   1.998       .  S
Zn159       O172   2.060       .  S
Zn159       O164   1.946       .  S
O160        C171   1.290       .  A
O160       Cd165   2.169       .  S
Cd161       O163   2.071       .  S
Cd161       O164   2.029       .  S
Cd162       O166   2.099       .  S
Cd162       O175   2.067       .  S
Cd162       O164   1.968       .  S
O163        C173   1.270       .  A
O164       Cd165   2.043       .  S
Cd165       O167   2.169       .  S
O166        C173   1.284       .  A
C168        O172   1.269       .  A
C168        C417   1.489       .  S
C169        C270   1.505       .  S
C173        C233   1.477       .  S
C174        O175   1.269       .  A
C174        C217   1.458       .  S
C176        C204   1.480       .  S
C176        N177   1.378       .  A
C176        N181   1.356       .  A
N177        C178   1.377       .  A
C178        C565   1.486       .  S
C178        N179   1.353       .  A
N179        C180   1.348       .  A
C180        C838   1.506       .  S
C180        N181   1.348       .  A
C182        C635   1.491       .  S
C182        N183   1.380       .  A
C182        N187   1.374       .  A
N183        C184   1.372       .  A
C184        C841   1.472       .  S
C184        N185   1.327       .  A
N185        C186   1.331       .  A
C186        C248   1.446       .  S
C186        N187   1.361       .  A
O188        C204   1.279       .  A
O188       Zn194   2.006       .  S
C189        O205   1.272       .  A
C189        O202   1.290       .  A
C189        C471   1.493       .  S
O190        C203   1.277       .  A
O190       Cd197   2.079   1_565  S
O191        C209   1.269       .  A
O191       Cd200   2.086   1_545  S
O192        C206   1.284       .  A
O192       Cd196   2.082   1_545  S
O193        C204   1.279       .  A
O193       Cd196   2.128       .  S
Zn194       O205   2.017       .  S
Zn194       O207   2.003       .  S
Zn194       O199   1.927       .  S
O195        C206   1.283       .  A
O195       Cd200   2.155   1_545  S
Cd196       O198   2.135   1_565  S
Cd196       O199   2.043       .  S
Cd197       O201   2.106       .  S
Cd197       O210   2.055       .  S
Cd197       O199   1.964   1_545  S
O198        C208   1.277       .  A
O199       Cd200   2.049       .  S
Cd200       O202   2.153       .  S
O201        C208   1.284       .  A
C203        O207   1.265       .  A
C203        C358   1.469       .  S
C206        C610   1.500       .  S
C209        O210   1.277       .  A
C209        C229   1.465       .  S
C211        C262   1.495       .  S
C211        N212   1.349       .  A
C211        N216   1.390       .  A
N212        C213   1.338       .  A
C213        C828   1.477       .  S
C213        N214   1.345       .  A
N214        C215   1.353       .  A
C215        C310   1.505       .  S
C215        N216   1.388       .  A
C217        N218   1.368       .  A
C217        N222   1.344       .  A
N218        C219   1.375       .  A
C219        N220   1.358       .  A
N220        C221   1.358       .  A
C221        C831   1.444       .  S
C221        N222   1.337       .  A
C223        N224   1.351       .  A
C223        N228   1.386       .  A
N224        C225   1.342       .  A
C225        C821   1.438       .  S
C225        N226   1.336       .  A
N226        C227   1.345       .  A
C227        C267   1.485       .  S
C227        N228   1.383       .  A
C229        N230   1.343       .  A
C229        N234   1.373       .  A
N230        C231   1.334       .  A
C231        C818   1.445       .  S
C231        N232   1.347       .  A
N232        C233   1.350       .  A
C233        N234   1.378       .  A
C235        C582   1.498       .  S
C235        N236   1.370       .  A
C235        N240   1.381       .  A
N236        C237   1.365       .  A
C237        C808   1.459       .  S
C237        N238   1.336       .  A
N238        C239   1.335       .  A
C239        C438   1.470       .  S
C239        N240   1.372       .  A
C241        C263   1.478       .  S
C241        N242   1.374       .  A
C241        N246   1.349       .  A
N242        C243   1.378       .  A
C243        C535   1.474       .  S
C243        N244   1.353       .  A
N244        C245   1.345       .  A
C245        C811   1.479       .  S
C245        N246   1.346       .  A
O247        C263   1.277       .  A
O247       Zn253   2.018       .  S
C248        O264   1.274       .  A
C248        O261   1.269       .  A
O249        C262   1.285       .  A
O249       Cd256   2.101       .  S
O250        C268   1.262       .  A
O250       Cd259   2.047       .  S
O251        C265   1.285       .  A
O251       Cd255   2.114       .  S
O252        C263   1.277       .  A
O252       Cd255   2.123       .  S
Zn253       O264   2.047       .  S
Zn253       O266   2.086       .  S
Zn253       O258   1.989       .  S
O254        C265   1.280       .  A
O254       Cd259   2.086       .  S
Cd255       O257   2.109       .  S
Cd255       O258   2.042       .  S
Cd256       O260   2.099       .  S
Cd256       O269   2.098       .  S
Cd256       O258   1.938       .  S
O257        C267   1.273       .  A
O258       Cd259   1.978       .  S
Cd259       O261   2.055       .  S
O260        C267   1.284       .  A
C262        O266   1.275       .  A
C268        O269   1.283       .  A
C268        C411   1.467       .  S
C270        N271   1.362       .  A
C270        N275   1.397       .  A
N271        C272   1.350       .  A
C272        C801   1.436       .  S
C272        N273   1.325       .  A
N273        C274   1.331       .  A
C274        C338   1.495       .  S
C274        N275   1.389       .  A
C276        N277   1.377       .  A
C276        N281   1.339       .  A
N277        C278   1.378       .  A
C278        C315   1.480       .  S
C278        N279   1.357       .  A
N279        C280   1.344       .  A
C280        C798   1.453       .  S
C280        N281   1.336       .  A
C282        C605   1.488       .  S
C282        N283   1.362       .  A
C282        N287   1.384       .  A
N283        C284   1.356       .  A
C284        C791   1.478       .  S
C284        N285   1.347       .  A
N285        C286   1.342       .  A
C286        C295   1.492       .  S
C286        N287   1.374       .  A
C288        N289   1.384       .  A
C288        N293   1.367       .  A
N289        C290   1.378       .  A
C290        C649   1.481       .  S
C290        N291   1.342       .  A
N291        C292   1.339       .  A
C292        C788   1.466       .  S
C292        N293   1.362       .  A
O294        C310   1.282       .  A
O294       Zn300   2.119       .  S
C295        O311   1.285       .  A
C295        O308   1.282       .  A
O296        C309   1.278       .  A
O296       Cd303   2.055       .  S
O297        C315   1.276       .  A
O297       Cd306   2.124       .  S
O298        C312   1.279       .  A
O298       Cd302   2.077       .  S
O299        C310   1.285       .  A
O299       Cd302   2.087       .  S
Zn300       O311   2.028       .  S
Zn300       O313   2.050       .  S
Zn300       O305   1.977       .  S
O301        C312   1.286       .  A
O301       Cd306   2.122       .  S
Cd302       O304   2.130       .  S
Cd302       O305   2.000       .  S
Cd303       O307   2.071       .  S
Cd303       O316   2.032       .  S
Cd303       O305   1.921       .  S
O304        C314   1.273       .  A
O305       Cd306   2.042       .  S
Cd306       O308   2.144       .  S
O307        C314   1.280       .  A
C309        O313   1.270       .  A
C309        C481   1.477       .  S
C312        C493   1.476       .  S
C314        C612   1.491       .  S
C315        O316   1.273       .  A
O317        C333   1.288       .  A
O317       Zn323   2.102   1_556  S
C318        O334   1.276       .  A
C318        O331   1.275       .  A
O319        C332   1.279   1_545  A
O319       Cd326   2.070       .  S
O320        C338   1.265       .  A
O320       Cd329   2.107       .  S
O321        C335   1.282       .  A
O321       Cd325   2.134   1_545  S
O322        C333   1.289       .  A
O322       Cd325   2.157   1_556  S
Zn323       O334   2.045       .  S
Zn323       O336   2.034   1_554  S
Zn323       O328   1.941       .  S
O324        C335   1.280       .  A
O324       Cd329   2.061       .  S
Cd325       O327   2.106   1_564  S
Cd325       O328   2.045       .  S
Cd326       O330   2.036       .  S
Cd326       O339   2.109   1_556  S
Cd326       O328   1.913   1_546  S
O327        C337   1.276       .  A
O328       Cd329   2.027   1_565  S
Cd329       O331   2.075   1_545  S
O330        C337   1.280       .  A
C332        O336   1.265       .  A
C332        C616   1.475       .  S
C333        C384   1.512       .  S
C335        C352   1.478       .  S
C337        C487   1.470       .  S
C338        O339   1.286       .  A
C340        N341   1.388       .  A
C340        N345   1.342       .  A
N341        C342   1.393       .  A
C342        N343   1.353       .  A
N343        C344   1.344       .  A
C344        C778   1.457       .  S
C344        N345   1.339       .  A
C346        C406   1.480       .  S
C346        N347   1.333       .  A
C346        N351   1.384       .  A
N347        C348   1.328       .  A
C348        C781   1.438       .  S
C348        N349   1.353       .  A
N349        C350   1.364       .  A
C350        C602   1.507       .  S
C350        N351   1.392       .  A
C352        N353   1.343       .  A
C352        N357   1.376       .  A
N353        C354   1.342       .  A
C354        C768   1.478       .  S
C354        N355   1.350       .  A
N355        C356   1.354       .  A
C356        N357   1.378       .  A
C358        N359   1.348       .  A
C358        N363   1.371       .  A
N359        C360   1.346       .  A
C360        C771   1.475   1_565  S
C360        N361   1.360       .  A
N361        C362   1.344       .  A
C362        C403   1.484       .  S
C362        N363   1.375       .  A
C364        N365   1.344       .  A
C364        N369   1.387       .  A
N365        C366   1.336       .  A
C366        C758   1.442       .  S
C366        N367   1.336       .  A
N367        C368   1.344       .  A
C368        N369   1.387       .  A
C370        C389   1.471       .  S
C370        N371   1.349       .  A
C370        N375   1.381       .  A
N371        C372   1.339       .  A
C372        C761   1.424       .  S
C372        N373   1.330       .  A
N373        C374   1.341       .  A
C374        C447   1.464       .  S
C374        N375   1.377       .  A
C376        N377   1.374       .  A
C376        N381   1.338       .  A
N377        C378   1.376       .  A
C378        C409   1.471       .  S
C378        N379   1.360       .  A
N379        C380   1.354       .  A
C380        C748   1.482       .  S
C380        N381   1.339       .  A
C382        C585   1.473       .  S
C382        N383   1.375       .  A
C382        N387   1.344       .  A
N383        C384   1.380       .  A
C384        N385   1.372       .  A
N385        C386   1.370       .  A
C386        C751   1.466       .  S
C386        N387   1.336       .  A
O388        C404   1.268       .  A
O388       Zn394   1.945       .  S
C389        O405   1.269       .  A
C389        O402   1.281       .  A
O390        C403   1.296       .  A
O390       Cd397   2.177       .  S
O391        C409   1.265       .  A
O391       Cd400   2.026       .  S
O392        C406   1.278       .  A
O392       Cd396   2.078       .  S
O393        C404   1.276       .  A
O393       Cd396   2.100       .  S
Zn394       O405   2.033       .  S
Zn394       O407   1.950       .  S
Zn394       O399   1.917       .  S
O395        C406   1.280       .  A
O395       Cd400   2.137       .  S
Cd396       O398   2.048       .  S
Cd396       O399   2.011       .  S
Cd397       O401   2.123       .  S
Cd397       O410   2.165       .  S
Cd397       O399   1.963       .  S
O398        C408   1.268       .  A
O399       Cd400   1.983       .  S
Cd400       O402   2.073       .  S
O401        C408   1.286       .  A
C403        O407   1.263       .  A
C409        O410   1.288       .  A
C411        N412   1.373       .  A
C411        N416   1.334       .  A
N412        C413   1.381       .  A
C413        N414   1.368       .  A
N414        C415   1.362       .  A
C415        C738   1.457       .  S
C415        N416   1.334       .  A
C417        N418   1.386       .  A
C417        N422   1.354       .  A
N418        C419   1.381       .  A
C419        C441   1.497       .  S
C419        N420   1.349       .  A
N420        C421   1.347       .  A
C421        C741   1.475       .  S
C421        N422   1.346       .  A
O423        C439   1.267       .  A
O423       Zn429   1.988       .  S
C424        O440   1.268       .  A
C424        O437   1.272       .  A
O425        C438   1.280       .  A
O425       Cd432   2.095       .  S
O426        C444   1.276       .  A
O426       Cd435   2.144       .  S
O427        C441   1.282       .  A
O427       Cd431   2.162       .  S
O428        C439   1.294       .  A
O428       Cd431   2.191   1_556  S
Zn429       O440   1.914   1_556  S
Zn429       O442   2.004       .  S
Zn429       O434   1.912   1_556  S
O430        C441   1.281       .  A
O430       Cd435   2.077       .  S
Cd431       O433   2.101   1_554  S
Cd431       O434   2.057       .  S
Cd432       O436   2.074       .  S
Cd432       O445   2.128   1_556  S
Cd432       O434   1.957   1_556  S
O433        C443   1.275       .  A
O434       Cd435   2.065       .  S
Cd435       O437   2.108       .  S
O436        C443   1.282       .  A
C438        O442   1.261       .  A
C439        C628   1.498       .  S
C443        C483   1.475       .  S
C444        O445   1.287       .  A
C444        C505   1.514       .  S
O446        C462   1.272   1_655  A
O446       Zn452   1.979       .  S
C447        O463   1.273       .  A
C447        O460   1.277       .  A
O448        C461   1.289       .  A
O448       Cd455   2.171       .  S
O449        C467   1.269       .  A
O449       Cd458   2.062       .  S
O450        C464   1.280       .  A
O450       Cd454   2.133   1_565  S
O451        C462   1.286       .  A
O451       Cd454   2.191       .  S
Zn452       O463   2.052   1_545  S
Zn452       O465   1.958       .  S
Zn452       O457   1.961       .  S
O453        C464   1.279       .  A
O453       Cd458   2.078   1_455  S
Cd454       O456   2.055       .  S
Cd454       O457   2.063   1_455  S
Cd455       O459   2.108       .  S
Cd455       O468   2.176       .  S
Cd455       O457   2.003       .  S
O456        C466   1.274       .  A
O457       Cd458   1.976   1_545  S
Cd458       O460   2.048       .  S
O459        C466   1.285   1_655  A
C461        O465   1.262       .  A
C464        C475   1.483       .  S
C466        C497   1.448       .  S
C467        O468   1.290   1_565  A
C467        C562   1.502       .  S
C469        N470   1.374       .  A
C469        N474   1.344       .  A
N470        C471   1.383       .  A
C471        N472   1.360       .  A
N472        C473   1.359       .  A
C473        C728   1.451       .  S
C473        N474   1.338       .  A
C475        N476   1.388       .  A
C475        N480   1.355       .  A
N476        C477   1.382       .  A
C477        C650   1.502       .  S
C477        N478   1.351       .  A
N478        C479   1.344       .  A
C479        C731   1.476       .  S
C479        N480   1.345       .  A
C481        N482   1.379       .  A
C481        N486   1.351       .  A
N482        C483   1.378       .  A
C483        N484   1.348       .  A
N484        C485   1.338       .  A
C485        C718   1.445       .  S
C485        N486   1.338       .  A
C487        N488   1.374       .  A
C487        N492   1.346       .  A
N488        C489   1.377       .  A
C489        C518   1.473       .  S
C489        N490   1.355       .  A
N490        C491   1.348       .  A
C491        C721   1.452       .  S
C491        N492   1.333       .  A
C493        N494   1.367       .  A
C493        N498   1.377       .  A
N494        C495   1.360       .  A
C495        C711   1.453   1_455  S
C495        N496   1.328   1_455  A
N496        C497   1.329   1_655  A
C497        N498   1.366       .  A
C499        N500   1.350       .  A
C499        N504   1.367       .  A
N500        C501   1.345       .  A
C501        C708   1.508       .  S
C501        N502   1.367       .  A
N502        C503   1.359       .  A
C503        C537   1.486       .  S
C503        N504   1.370       .  A
C505        N506   1.403       .  A
C505        N510   1.352       .  A
N506        C507   1.398       .  A
C507        N508   1.349       .  A
N508        C509   1.341       .  A
C509        C701   1.476       .  S
C509        N510   1.341       .  A
C511        C608   1.488       .  S
C511        N512   1.363       .  A
C511        N516   1.382       .  A
N512        C513   1.360       .  A
C513        C698   1.446       .  S
C513        N514   1.336       .  A
N514        C515   1.339       .  A
C515        C533   1.468       .  S
C515        N516   1.367       .  A
O517        C533   1.269       .  A
O517       Zn523   1.969       .  S
C518        O534   1.277       .  A
C518        O531   1.278       .  A
O519        C532   1.288       .  A
O519       Cd526   2.152       .  S
O520        C538   1.271       .  A
O520       Cd529   2.096       .  S
O521        C535   1.277       .  A
O521       Cd525   2.104       .  S
O522        C533   1.281       .  A
O522       Cd525   2.136       .  S
Zn523       O534   2.069       .  S
Zn523       O536   1.976       .  S
Zn523       O528   1.947       .  S
O524        C535   1.279       .  A
O524       Cd529   2.065       .  S
Cd525       O527   2.058       .  S
Cd525       O528   2.029       .  S
Cd526       O530   2.163       .  S
Cd526       O539   2.167       .  S
Cd526       O528   1.985       .  S
O527        C537   1.274       .  A
O528       Cd529   1.977       .  S
Cd529       O531   2.065       .  S
O530        C537   1.294       .  A
C532        O536   1.260       .  A
C532        C552   1.478       .  S
C538        O539   1.289       .  A
C540        C654   1.481       .  S
C540        N541   1.376       .  A
C540        N545   1.342       .  A
N541        C542   1.383       .  A
C542        N543   1.352       .  A
N543        C544   1.351       .  A
C544        C688   1.460       .  S
C544        N545   1.338       .  A
C546        C588   1.466       .  S
C546        N547   1.357       .  A
C546        N551   1.374       .  A
N547        C548   1.353       .  A
C548        C691   1.441       .  S
C548        N549   1.335       .  A
N549        C550   1.340       .  A
C550        C584   1.462       .  S
C550        N551   1.369       .  A
C552        N553   1.370       .  A
C552        N557   1.346       .  A
N553        C554   1.376       .  A
C554        N555   1.357       .  A
N555        C556   1.360       .  A
C556        C678   1.476       .  S
C556        N557   1.351       .  A
C558        C579   1.476       .  S
C558        N559   1.341       .  A
C558        N563   1.372       .  A
N559        C560   1.341       .  A
C560        C681   1.464       .  S
C560        N561   1.364       .  A
N561        C562   1.364       .  A
C562        N563   1.381       .  A
O564        C580   1.280       .  A
O564       Zn570   2.020       .  S
C565        O581   1.277       .  A
C565        O578   1.275       .  A
O566        C579   1.280       .  A
O566       Cd573   2.121       .  S
O567        C585   1.276       .  A
O567       Cd576   2.112       .  S
O568        C582   1.291       .  A
O568       Cd572   2.135       .  S
O569        C580   1.284       .  A
O569       Cd572   2.196       .  S
Zn570       O581   1.981       .  S
Zn570       O583   2.023       .  S
Zn570       O575   1.898       .  S
O571        C582   1.289       .  A
O571       Cd576   2.140       .  S
Cd572       O574   2.068       .  S
Cd572       O575   2.034       .  S
Cd573       O577   2.075       .  S
Cd573       O586   2.062       .  S
Cd573       O575   1.939       .  S
O574        C584   1.269       .  A
O575       Cd576   2.042       .  S
Cd576       O578   2.138       .  S
O577        C584   1.285       .  A
C579        O583   1.269       .  A
C585        O586   1.278       .  A
O587        C603   1.281       .  A
O587       Zn593   2.051   1_455  S
C588        O604   1.283       .  A
C588        O601   1.269       .  A
O589        C602   1.293       .  A
O589       Cd596   2.155       .  S
O590        C608   1.264       .  A
O590       Cd599   2.016       .  S
O591        C605   1.288       .  A
O591       Cd595   2.154   1_556  S
O592        C603   1.271       .  A
O592       Cd595   2.077       .  S
Zn593       O604   2.080   1_554  S
Zn593       O606   2.068       .  S
Zn593       O598   1.971       .  S
O594        C605   1.269       .  A
O594       Cd599   2.059   1_455  S
Cd595       O597   2.069       .  S
Cd595       O598   2.027   1_455  S
Cd596       O600   2.147       .  S
Cd596       O609   2.175       .  S
Cd596       O598   2.011       .  S
O597        C607   1.268       .  A
O598       Cd599   2.010   1_554  S
Cd599       O601   2.046       .  S
O600        C607   1.286   1_655  A
C602        O606   1.278       .  A
C603        C622   1.476       .  S
C608        O609   1.291   1_556  A
C610        N611   1.384       .  A
C610        N615   1.352       .  A
N611        C612   1.387       .  A
C612        N613   1.353       .  A
N613        C614   1.342       .  A
C614        C668   1.465       .  S
C614        N615   1.346       .  A
C616        N617   1.376       .  A
C616        N621   1.339       .  A
N617        C618   1.382       .  A
C618        C652   1.490       .  S
C618        N619   1.362       .  A
N619        C620   1.355       .  A
C620        C671   1.442   1_565  S
C620        N621   1.333       .  A
C622        N623   1.354       .  A
C622        N627   1.378       .  A
N623        C624   1.351       .  A
C624        C658   1.487       .  S
C624        N625   1.351       .  A
N625        C626   1.349       .  A
C626        N627   1.372       .  A
C628        N629   1.365       .  A
C628        N633   1.385       .  A
N629        C630   1.363       .  A
C630        C661   1.455       .  S
C630        N631   1.337       .  A
N631        C632   1.343       .  A
C632        C655   1.483       .  S
C632        N633   1.373       .  A
O634        C650   1.279       .  A
O634       Zn640   1.998       .  S
C635        O651   1.279       .  A
C635        O648   1.289       .  A
O636        C649   1.277       .  A
O636       Cd643   2.087       .  S
O637        C655   1.282       .  A
O637       Cd646   2.155       .  S
O638        C652   1.289       .  A
O638       Cd642   2.117       .  S
O639        C650   1.283       .  A
O639       Cd642   2.167       .  S
Zn640       O651   2.036       .  S
Zn640       O653   2.066       .  S
Zn640       O645   1.933       .  S
O641        C652   1.285       .  A
O641       Cd646   2.132       .  S
Cd642       O644   2.110       .  S
Cd642       O645   2.050       .  S
Cd643       O647   2.074       .  S
Cd643       O656   2.046       .  S
Cd643       O645   1.955       .  S
O644        C654   1.272       .  A
O645       Cd646   2.023       .  S
Cd646       O648   2.156       .  S
O647        C654   1.281       .  A
C649        O653   1.273       .  A
C655        O656   1.275       .  A
C657        C658   1.409       .  A
C657        C662   1.404       .  A
C657        H664   1.083       .  S
C658        C659   1.408   1_554  A
C659        C660   1.398       .  A
C659       Br666   1.915       .  S
C660        C661   1.405       .  A
C660        H665   1.084       .  S
C661        C662   1.410   1_556  A
C662       Br663   1.917       .  S
C667        C668   1.402       .  A
C667        C672   1.389       .  A
C667        H674   1.084       .  S
C668        C669   1.402       .  A
C669        C670   1.395       .  A
C669       Br676   1.892       .  S
C670        C671   1.398       .  A
C670        H675   1.083       .  S
C671        C672   1.405       .  A
C672       Br673   1.917       .  S
C677        C678   1.394   1_565  A
C677        C682   1.391       .  A
C677        H684   1.084       .  S
C678        C679   1.408       .  A
C679        C680   1.395       .  A
C679       Br686   1.909       .  S
C680        C681   1.399   1_545  A
C680        H685   1.083       .  S
C681        C682   1.423       .  A
C682       Br683   1.924       .  S
C687        C688   1.399   1_655  A
C687        C692   1.380       .  A
C687        H694   1.083       .  S
C688        C689   1.414       .  A
C689        C690   1.395       .  A
C689       Br696   1.923       .  S
C690        C691   1.399   1_455  A
C690        H695   1.083       .  S
C691        C692   1.408       .  A
C692       Br693   1.922       .  S
C697        C698   1.400       .  A
C697        C702   1.388       .  A
C697        H704   1.084       .  S
C698        C699   1.404   1_556  A
C699        C700   1.398       .  A
C699       Br706   1.918       .  S
C700        C701   1.411       .  A
C700        H705   1.084       .  S
C701        C702   1.409   1_554  A
C702       Br703   1.921       .  S
C707        C708   1.394       .  A
C707        C712   1.403       .  A
C707        H714   1.072       .  S
C708        C709   1.413       .  A
C709        C710   1.404   1_655  A
C709       Br716   1.907       .  S
C710        C711   1.407   1_455  A
C710        H715   1.083       .  S
C711        C712   1.432       .  A
C712       Br713   1.924       .  S
C717        C718   1.399       .  A
C717        C722   1.392       .  A
C717        H724   1.084       .  S
C718        C719   1.408       .  A
C719        C720   1.382       .  A
C719       Br726   1.926       .  S
C720        C721   1.399       .  A
C720        H725   1.085       .  S
C721        C722   1.411       .  A
C722       Br723   1.919   1_556  S
C727        C728   1.398       .  A
C727        C732   1.394       .  A
C727        H734   1.084       .  S
C728        C729   1.408       .  A
C729        C730   1.395       .  A
C729       Br736   1.913       .  S
C730        C731   1.403       .  A
C730        H735   1.084       .  S
C731        C732   1.408       .  A
C732       Br733   1.912       .  S
C737        C738   1.406       .  A
C737        C742   1.388       .  A
C737        H744   1.084       .  S
C738        C739   1.403       .  A
C739        C740   1.401       .  A
C739       Br746   1.916       .  S
C740        C741   1.410       .  A
C740        H745   1.070       .  S
C741        C742   1.407       .  A
C742       Br743   1.920       .  S
C747        C748   1.397       .  A
C747        C752   1.400       .  A
C747        H754   1.083       .  S
C748        C749   1.411   1_554  A
C749        C750   1.402       .  A
C749       Br756   1.925       .  S
C750        C751   1.407       .  A
C750        H755   1.084       .  S
C751        C752   1.418   1_556  A
C752       Br753   1.900       .  S
C757        C758   1.404       .  A
C757        C762   1.377       .  A
C757        H764   1.084       .  S
C758        C759   1.408       .  A
C759        C760   1.383   1_455  A
C759       Br766   1.922       .  S
C760        C761   1.395       .  A
C760        H765   1.083       .  S
C761        C762   1.398   1_655  A
C762       Br763   1.922   1_455  S
C767        C768   1.412       .  A
C767        C772   1.397       .  A
C767        H774   1.083       .  S
C768        C769   1.426   1_545  A
C769        C770   1.394       .  A
C769       Br776   1.934       .  S
C770        C771   1.392   1_565  A
C770        H775   1.082       .  S
C771        C772   1.407       .  A
C772       Br773   1.919       .  S
C777        C778   1.405       .  A
C777        C782   1.388       .  A
C777        H784   1.084       .  S
C778        C779   1.408       .  A
C779        C780   1.393       .  A
C779       Br786   1.916       .  S
C780        C781   1.399       .  A
C780        H785   1.084       .  S
C781        C782   1.403       .  A
C782       Br783   1.922       .  S
C787        C788   1.407       .  A
C787        C792   1.395       .  A
C787        H794   1.084       .  S
C788        C789   1.402       .  A
C789        C790   1.399       .  A
C789       Br796   1.917       .  S
C790        C791   1.412       .  A
C790        H795   1.084       .  S
C791        C792   1.407       .  A
C792       Br793   1.920       .  S
C797        C798   1.404       .  A
C797        C802   1.388       .  A
C797        H804   1.084       .  S
C798        C799   1.407       .  A
C799        C800   1.391       .  A
C799       Br806   1.918   1_545  S
C800        C801   1.402   1_556  A
C800        H805   1.084   1_556  S
C801        C802   1.405   1_554  A
C802       Br803   1.923   1_556  S
C807        C808   1.406       .  A
C807        C812   1.388       .  A
C807        H814   1.084       .  S
C808        C809   1.406       .  A
C809        C810   1.404       .  A
C809       Br816   1.915       .  S
C810        C811   1.411       .  A
C810        H815   1.082       .  S
C811        C812   1.408       .  A
C812       Br813   1.922       .  S
C817        C818   1.401       .  A
C817        C822   1.375       .  A
C817        H824   1.084       .  S
C818        C819   1.409       .  A
C819        C820   1.390       .  A
C819       Br826   1.922       .  S
C820        C821   1.401       .  A
C820        H825   1.082       .  S
C821        C822   1.403       .  A
C822       Br823   1.925       .  S
C827        C828   1.409       .  A
C827        C832   1.395       .  A
C827        H834   1.084       .  S
C828        C829   1.416       .  A
C829        C830   1.387       .  A
C829       Br836   1.921       .  S
C830        C831   1.393       .  A
C830        H835   1.085       .  S
C831        C832   1.401       .  A
C832       Br833   1.917       .  S
C837        C838   1.404       .  A
C837        C842   1.404       .  A
C837        H844   1.085       .  S
C838        C839   1.407       .  A
C839        C840   1.411       .  A
C839       Br846   1.897       .  S
C840        C841   1.410       .  A
C840        H845   1.084       .  S
C841        C842   1.433       .  A
C842       Br843   1.926       .  S
C847        C848   1.404       .  A
C847        C852   1.385       .  A
C847        H854   1.083       .  S
C848        C849   1.411       .  A
C849        C850   1.397       .  A
C849       Br856   1.920   1_455  S
C850        C851   1.399       .  A
C850        H855   1.083   1_465  S
C851        C852   1.402       .  A
C852       Br853   1.921       .  S
C857        C858   1.407       .  A
C857        C862   1.402   1_554  A
C857        H864   1.084       .  S
C858        C859   1.433       .  A
C859        C860   1.397       .  A
C859       Br866   1.930       .  S
C860        C861   1.393       .  A
C860        H865   1.075       .  S
C861        C862   1.410   1_554  A
C862       Br863   1.903       .  S
C867        C868   1.404       .  A
C867        C872   1.394       .  A
C867        H874   1.085       .  S
C868        C869   1.406       .  A
C869        C870   1.396       .  A
C869       Br876   1.913       .  S
C870        C871   1.403       .  A
C870        H875   1.087       .  S
C871        C872   1.409       .  A
C872       Br873   1.918       .  S
C877        C878   1.403       .  A
C877        C882   1.386       .  A
C877        H884   1.084       .  S
C878        C879   1.407       .  A
C879        C880   1.396       .  A
C879       Br886   1.908       .  S
C880        C881   1.404       .  A
C880        H885   1.084       .  S
C881        C882   1.407       .  A
C882       Br883   1.923       .  S
C887        C888   1.412   1_556  A
C887        C892   1.408   1_556  A
C887        H894   1.083       .  S
C888        C889   1.400       .  A
C889        C890   1.400       .  A
C889       Br896   1.912       .  S
C890        C891   1.423       .  A
C890        H895   1.083       .  S
C891        C892   1.410       .  A
C892       Br893   1.913   1_455  S
