geometry optimzed in LAMMPS
_audit_creation_date              2020-11-30 
_audit_creation_method            'lammps2cif' 
_symmetry_space_group_name_H-M    'P1' 
_symmetry_Int_Tables_number       1 
_symmetry_cell_setting            triclinic 
loop_ 
_symmetry_equiv_pos_as_xyz 
  x,y,z 
_cell_length_a                    46.10644529 
_cell_length_b                    45.34313067162822 
_cell_length_c                    58.930543034404764 
_cell_angle_alpha                 87.11056274536966 
_cell_angle_beta                  89.01958926648616 
_cell_angle_gamma                 122.64086182824715 
loop_ 
_atom_site_label 
_atom_site_type_symbol 
_atom_site_fract_x 
_atom_site_fract_y 
_atom_site_fract_z 
_atom_site_charge 
C1          C  0.11178936  0.53316494  0.09864221     0.79200
N2          N  0.11609260  0.50585487  0.09847777    -0.79100
C3          C  0.12892341  0.49753263  0.11646309     0.81700
N4          N  0.13826973  0.51753195  0.13472364    -0.79000
C5          C  0.12928257  0.04286948  0.13994966     0.81800
N6          N  0.11799873  0.05248873  0.12148710    -0.80700
C7          C  0.15577872  0.07049615  0.19834575     0.79200
N8          N  0.14792251  0.05225386  0.17936389    -0.79100
C9          C  0.13825760  0.06295884  0.16054049     0.81700
N10         N  0.13745559  0.09259766  0.16071327    -0.79000
C11         C  0.14595860  0.11126535  0.17957337     0.81800
N12         N  0.15470605  0.09979950  0.19829275    -0.80700
C13         C  0.44798478  0.12454276  0.12265307     0.79200
N14         N  0.44498419  0.10652586  0.10428152    -0.79100
C15         C  0.41951917  0.07221519  0.10376154     0.81700
N16         N  0.39690000  0.05567284  0.12196820    -0.79000
C17         C  0.39982878  0.07319797  0.14065365     0.81800
N18         N  0.42550555  0.10768846  0.14100763    -0.80700
C19         C  0.33655234  0.49629513  0.18181265     0.79200
N20         N  0.35827300  0.51475464  0.16342098    -0.79100
C21         C  0.37646768  0.05429897  0.16075683     0.81700
N22         N  0.37980576  0.07143218  0.17968887    -0.79000
C23         C  0.35865626  0.05425815  0.19845722     0.81800
N24         N  0.33884970  0.51315540  0.20066898    -0.80700
C25         C  0.44699293  0.30951498  0.18558725     0.79200
N26         N  0.43508307  0.31506547  0.16588028    -0.79100
C27         C  0.40137206  0.30488111  0.16472084     0.81700
N28         N  0.37922060  0.28798208  0.18327427    -0.79000
C29         C  0.39089947  0.28205889  0.20293720     0.81800
N30         N  0.42456195  0.29307029  0.20385133    -0.80700
C31         C  0.34390827  0.30603711  0.12125338     0.79200
N32         N  0.35522986  0.30084851  0.14142674    -0.79100
C33         C  0.38884644  0.31084389  0.14310200     0.81700
N34         N  0.41135517  0.32719990  0.12471304    -0.79000
C35         C  0.40026343  0.33273068  0.10473620     0.81800
N36         N  0.36681601  0.32196378  0.10319825    -0.80700
O37         O  0.17921348  0.38745882  0.11085201    -0.81900
O38         O  0.17026370  0.26749486  0.17506705    -0.66600
O39         O  0.15897050  0.31865132  0.12690046    -1.13200
C40         C  0.07832758  0.31735899  0.17921901     1.05000
O41         O  0.11476949  0.23378611  0.18523675    -0.79800
O42         O  0.07058484  0.24353384  0.16312476    -0.67300
Ni43       Ni  0.19815419  0.35803540  0.11055878     1.34900
C44         C  0.06868533  0.25332381  0.14301008     0.83800
O45         O  0.19400881  0.28514907  0.13269427    -0.80300
O46         O  0.22272319  0.33405020  0.10947107    -0.90600
C47         C  0.14411568  0.23793490  0.18190295     0.83300
O48         O  0.22169369  0.38000963  0.13647878    -0.68800
O49         O  0.07868213  0.29295845  0.19076451    -0.88100
C50         C  0.22539866  0.36755714  0.15507830     0.84200
C51         C  0.21906500  0.30606017  0.11887880     1.05700
H52         H  0.15143329  0.32139442  0.17909370     0.37500
O53         O  0.13736033  0.30363633  0.16884432    -1.10700
O54         O  0.08951622  0.28400135  0.13370093    -0.67400
Ni55       Ni  0.12863044  0.32634908  0.14423352     1.26300
O56         O  0.20702043  0.33513174  0.16194358    -0.67600
O57         O  0.09820549  0.33374169  0.16168852    -0.79900
C58         C  0.14908450  0.38169525  0.11400767     0.83500
O59         O  0.12348710  0.35118598  0.11957526    -0.67100
Ni60       Ni  0.09943864  0.26598472  0.18720826     1.27400
Ni61       Ni  0.16610375  0.29423573  0.15106287     1.26100
H62         H  0.14608774  0.30203035  0.11577396     0.38100
O63         O  0.20697038  0.07103742  0.29847320    -0.81900
O64         O  0.33015276  0.16853310  0.36054029    -0.66600
O65         O  0.26424091  0.12983183  0.31551905    -1.13200
C66         C  0.34332350  0.11526887  0.27652952     1.05000
O67         O  0.37876913  0.19090501  0.33929429    -0.79800
O68         O  0.35523529  0.19689569  0.29749176    -0.67300
Ni69       Ni  0.21808299  0.09435741  0.32658321     1.34900
C70         C  0.33457325  0.18832370  0.28149624     0.83800
O71         O  0.27224764  0.16508793  0.35345987    -0.80300
O72         O  0.22136186  0.11440544  0.35566913    -0.90600
C73         C  0.36274627  0.18654627  0.35822719     0.83300
O74         O  0.23259466  0.06504994  0.33922533    -0.68800
O75         O  0.36455093  0.14571611  0.28303553    -0.88100
C76         C  0.25261523  0.07385532  0.35561613     0.84200
C77         C  0.24209985  0.14488745  0.36237967     1.05700
H78         H  0.32065633  0.11354177  0.33075101     0.37500
O79         O  0.32099534  0.13235904  0.32206688    -1.10700
O80         O  0.31052148  0.15636310  0.27939109    -0.67400
Ni81       Ni  0.28825567  0.11340044  0.29924794     1.26300
O82         O  0.27538647  0.10605519  0.35819688    -0.67600
O83         O  0.31239777  0.09655054  0.28429171    -0.79900
C84         C  0.22269221  0.07649999  0.27920761     0.83500
O85         O  0.25524252  0.09464044  0.27668886    -0.67100
Ni86       Ni  0.36774829  0.16676685  0.31150619     1.27400
Ni87       Ni  0.29700347  0.14896962  0.33824278     1.26100
H88         H  0.26407779  0.14833149  0.30680120     0.38100
C89         C  0.26967100  0.46916886  0.50259385     0.79200
N90         N  0.25502902  0.97815328  0.49042703    -0.79100
C91         C  0.21838163  0.46404971  0.49092792     0.81700
N92         N  0.20386088  0.45136586  0.51233615    -0.79000
C93         C  0.22210886  0.44777633  0.52889197     0.81800
N94         N  0.25464123  0.45635418  0.52374927    -0.80700
C95         C  0.14842275  0.46609229  0.46226523     0.79200
N96         N  0.16633149  0.46107416  0.47842235    -0.79100
C97         C  0.19854807  0.46833157  0.47314492     0.81700
N98         N  0.21268336  0.48063287  0.45158663    -0.79000
C99         C  0.19455468  0.48520662  0.43533481     0.81800
N100        N  0.16290158  0.47855959  0.44101864    -0.80700
C101        C  0.18447200  0.21352612  0.53384165     0.79200
N102        N  0.15375096  0.18264147  0.53346554    -0.79100
C103        C  0.14549215  0.16293757  0.51532641     0.81700
N104        N  0.16875244  0.17424233  0.49737565    -0.79000
C105        C  0.19969268  0.20534952  0.49737654     0.81800
N106        N  0.20739097  0.22527229  0.51559247    -0.80700
C107        C  0.23605244  0.21008397  0.43983804     0.79200
N108        N  0.21439544  0.19849399  0.45866236    -0.79100
C109        C  0.22399753  0.21748971  0.47736277     0.81700
N110        N  0.25574128  0.24776613  0.47721576    -0.79000
C111        C  0.27790847  0.25875116  0.45856297     0.81800
N112        N  0.26759912  0.23999850  0.43997208    -0.80700
C113        C  0.48129486  0.23255963  0.53230681     0.79200
N114        N  0.47343294  0.25713007  0.53402721    -0.79100
C115        C  0.46136804  0.26658925  0.51622583     0.81700
N116        N  0.45645635  0.25064199  0.49646596    -0.79000
C117        C  0.46412469  0.22572928  0.49447006     0.81800
N118        N  0.47688647  0.21691703  0.51243206    -0.80700
C119        C  0.43910937  0.20132522  0.43567639     0.79200
N120        N  0.44916095  0.17860125  0.43274352    -0.79100
C121        C  0.46438113  0.17090447  0.44951381     0.81700
N122        N  0.46901280  0.18605865  0.46966973    -0.79000
C123        C  0.45921427  0.20916730  0.47273123     0.81800
N124        N  0.44397430  0.21646093  0.45570666    -0.80700
O125        O  0.39808665  0.42091261  0.44222700    -0.81900
O126        O  0.98707894  0.02628898  0.51078445    -0.66600
O127        O  0.45849382  0.47157050  0.46092762    -1.13200
C128        C  0.44403770  0.38252138  0.51558539     1.05000
O129        O  0.01844660  0.00511345  0.52213865    -0.79800
O130        O  0.02295165  0.46316478  0.50570907    -0.67300
Ni131      Ni  0.42921284  0.47131151  0.43856438     1.34900
C132        C  0.02048518  0.45293011  0.48581962     0.83800
O133        O  0.47956239  0.04225559  0.47014760    -0.80300
O134        O  0.45707847  0.02380842  0.43633437    -0.90600
C135        C  0.01471506  0.03070837  0.51823048     0.83300
O136        O  0.39867117  0.47559389  0.45824977    -0.68800
O137        O  0.45701528  0.40581752  0.53014224    -0.88100
C138        C  0.39818968  0.48154120  0.47904608     0.84200
C139        C  0.47125516  0.04760659  0.45048732     1.05700
H140        H  0.43502412  0.44777156  0.51132251     0.37500
O141        O  0.45698383  0.45671541  0.50329376    -1.10700
O142        O  0.49366473  0.44067568  0.47254608    -0.67400
Ni143      Ni  0.44690050  0.42930794  0.47812599     1.26300
O144        O  0.42459707  0.98999184  0.49500244    -0.67600
O145        O  0.43690684  0.38793078  0.49562174    -0.79900
C146        C  0.40294648  0.39618917  0.44689474     0.83500
O147        O  0.43228563  0.40277558  0.45226024    -0.67100
Ni148      Ni  0.99100225  0.46103648  0.52739050     1.27400
Ni149      Ni  0.47065489  0.00089171  0.48759730     1.26100
H150        H  0.48025858  0.48044368  0.45269530     0.38100
C151        C  0.26783203  0.37286779  0.76957750     0.79200
N152        N  0.26809382  0.34311836  0.76986233    -0.79100
C153        C  0.27413634  0.33002339  0.78904646     0.81700
N154        N  0.28076266  0.34761339  0.80835330    -0.79000
C155        C  0.28061559  0.37769962  0.80837829     0.81800
N156        N  0.27364211  0.38995583  0.78894679    -0.80700
C157        C  0.30672891  0.40638986  0.86682195     0.79200
N158        N  0.29968657  0.38810025  0.84785958    -0.79100
C159        C  0.28846529  0.39739402  0.82916993     0.81700
N160        N  0.28545939  0.42574541  0.82945968    -0.79000
C161        C  0.29328506  0.44455518  0.84823328     0.81800
N162        N  0.30337447  0.43427493  0.86678997    -0.80700
C163        C  0.09221857  0.44204300  0.79069809     0.79200
N164        N  0.09163255  0.42521972  0.77228635    -0.79100
C165        C  0.06787127  0.39047251  0.77113298     0.81700
N166        N  0.04384687  0.37234692  0.78856785    -0.79000
C167        C  0.04415707  0.38905991  0.80714779     0.81800
N168        N  0.06838504  0.42375055  0.80809692    -0.80700
C169        C  0.47208516  0.31381789  0.84795928     0.79200
N170        N  0.47701303  0.33110062  0.86699676    -0.79100
C171        C  0.50363437  0.36486479  0.86774532     0.81700
N172        N  0.02520989  0.38657186  0.84637321    -0.79000
C173        C  0.02031965  0.36985404  0.82698806     0.81800
N174        N  0.49339379  0.33090989  0.82912928    -0.80700
C175        C  0.07924183  0.13404557  0.84824007     0.79200
N176        N  0.06741027  0.13885411  0.82827422    -0.79100
C177        C  0.03417023  0.12994102  0.82707494     0.81700
N178        N  0.01229145  0.11504088  0.84590239    -0.79000
C179        C  0.02383967  0.10980189  0.86582654     0.81800
N180        N  0.05712351  0.11949396  0.86678824    -0.80700
C181        C  0.47880523  0.13828796  0.78690548     0.79200
N182        N  0.50108676  0.15330745  0.76859051    -0.79100
C183        C  0.03322013  0.15989071  0.76740832     0.81700
N184        N  0.04446281  0.15336088  0.78707200    -0.79000
C185        C  0.02194707  0.13630446  0.80549626     0.81800
N186        N  0.48943586  0.13060340  0.80649462    -0.80700
O187        O  0.30867564  0.21037259  0.78228939    -0.81900
O188        O  0.29958722  0.08765489  0.84478995    -0.66600
O189        O  0.28783300  0.14009302  0.79725702    -1.13200
C190        C  0.20408200  0.13396525  0.84752354     1.05000
O191        O  0.24402340  0.05261471  0.85470078    -0.79800
O192        O  0.20200241  0.06134436  0.82896705    -0.67300
Ni193      Ni  0.32676790  0.18036259  0.78130578     1.34900
C194        C  0.19937746  0.07400738  0.81005695     0.83800
O195        O  0.32558343  0.10830949  0.80293198    -0.80300
O196        O  0.35065553  0.15630250  0.77895957    -0.90600
C197        C  0.27382949  0.05765919  0.85142543     0.83300
O198        O  0.35042243  0.20103845  0.80757613    -0.68800
O199        O  0.20106207  0.10630683  0.85685534    -0.88100
C200        C  0.35340631  0.18818315  0.82628218     0.84200
C201        C  0.34930591  0.12952737  0.78838290     1.05700
H202        H  0.27791185  0.13837094  0.85023803     0.37500
O203        O  0.26492172  0.12209140  0.83894828    -1.10700
O204        O  0.21808130  0.10646313  0.80330107    -0.67400
Ni205      Ni  0.25775199  0.14737017  0.81519059     1.26300
O206        O  0.33482932  0.15571077  0.83293718    -0.67600
O207        O  0.22857398  0.15484122  0.83341051    -0.79900
C208        C  0.27870808  0.20481006  0.78540402     0.83500
O209        O  0.25318065  0.17458534  0.79171883    -0.67100
Ni210      Ni  0.22552810  0.08241649  0.85511940     1.27400
Ni211      Ni  0.29528604  0.11489328  0.82107482     1.26100
H212        H  0.27486027  0.12379079  0.78595439     0.38100
O213        O  0.41569308  0.00843531  0.00558190    -0.81900
O214        O  0.47442883  0.44437703  0.94069783    -0.66600
O215        O  0.42722111  0.45722033  0.98891982    -1.13200
C216        C  0.03370585  0.51085163  0.02209804     1.05000
O217        O  0.49749680  0.42399141  0.96423592    -0.79800
O218        O  0.48272976  0.42017083  0.00915843    -0.67300
Ni219      Ni  0.40168804  0.97737293  0.98093728     1.34900
C220        C  0.46513374  0.42281545  0.02471346     0.83800
O221        O  0.40878423  0.42259339  0.94804029    -0.80300
O222        O  0.38139848  0.44955258  0.95519670    -0.90600
C223        C  0.49063969  0.42946051  0.94429962     0.83300
O224        O  0.43094592  0.01655968  0.95988428    -0.68800
O225        O  0.03716834  0.48830062  0.01245202    -0.88100
C226        C  0.45612563  0.02299091  0.94679458     0.84200
C227        C  0.38545966  0.42865055  0.94398401     1.05700
H228        H  0.00493706  0.49871105  0.97095776     0.37500
O229        O  0.49046691  0.47745378  0.98013533    -1.10700
O230        O  0.45963666  0.44740990  0.02446201    -0.67400
Ni231      Ni  0.46917761  0.48648345  0.00411940     1.26300
O232        O  0.46023293  0.49187258  0.94612717    -0.67600
O233        O  0.00960277  0.51585005  0.01807580    -0.79900
C234        C  0.42733438  0.00730254  0.02482961     0.83500
O235        O  0.44504957  0.99402833  0.02808464    -0.67100
Ni236      Ni  0.51590688  0.45632562  0.98774849     1.27400
Ni237      Ni  0.44976260  0.45024496  0.96410871     1.26100
H238        H  0.41279454  0.43507759  0.99768910     0.38100
O239        O  0.04273876  0.25266527  0.63201449    -0.81900
O240        O  0.17197074  0.34660901  0.69114495    -0.66600
O241        O  0.10387213  0.30925186  0.64710954    -1.13200
C242        C  0.17510091  0.28410619  0.60830686     1.05000
O243        O  0.21867937  0.36577011  0.66845643    -0.79800
O244        O  0.19265232  0.36914574  0.62744227    -0.67300
Ni245      Ni  0.05691290  0.27877974  0.65875911     1.34900
C246        C  0.17203772  0.36027362  0.61140086     0.83800
O247        O  0.11706354  0.34898035  0.68384119    -0.80300
O248        O  0.06341864  0.30206835  0.68647275    -0.90600
C249        C  0.20440657  0.36366813  0.68771566     0.83300
O250        O  0.06623376  0.24674448  0.67370552    -0.68800
O251        O  0.19801812  0.31457890  0.61406646    -0.88100
C252        C  0.08762758  0.25508378  0.68924688     0.84200
C253        C  0.08666188  0.33191092  0.69264026     1.05700
H254        H  0.15695621  0.28833163  0.66332180     0.37500
O255        O  0.15804718  0.30699783  0.65385208    -1.10700
O256        O  0.14722996  0.32847273  0.61010988    -0.67400
Ni257      Ni  0.12391607  0.28764308  0.63186921     1.26300
O258        O  0.11354331  0.28646111  0.69034636    -0.67600
O259        O  0.14491534  0.26666606  0.61755947    -0.79900
C260        C  0.05688306  0.25289785  0.61327837     0.83500
O261        O  0.08925887  0.26782633  0.61039835    -0.67100
Ni262      Ni  0.20450303  0.33871675  0.64179814     1.27400
Ni263      Ni  0.13772120  0.32797838  0.66931469     1.26100
H264        H  0.10567893  0.32824052  0.63761523     0.38100
C265        C  0.44470681  0.13404387  0.78563580    -0.07100
C266        C  0.41525143  0.10384001  0.79582624    -0.18200
C267        C  0.38257171  0.09931525  0.79508800     0.10100
C268        C  0.37938451  0.12606848  0.78416526    -0.07000
C269        C  0.40868447  0.15485797  0.77256354    -0.18300
C270        C  0.44114390  0.15965726  0.77358933     0.10100
S271        S  0.34561036  0.05900882  0.80775749    -0.33200
S272        S  0.47802961  0.20110049  0.76177932    -0.33200
H273        H  0.45979142  0.21136692  0.74812049     0.28100
H274        H  0.36361649  0.04460318  0.81701430     0.28100
H275        H  0.41797004  0.08380447  0.80435245     0.18700
H276        H  0.40692962  0.17554420  0.76412859     0.18700
C277        C  0.05652081  0.18229602  0.74790527    -0.07100
C278        C  0.04719348  0.16947390  0.72627777    -0.18200
C279        C  0.05890432  0.19210998  0.70652224     0.10100
C280        C  0.08039389  0.22882283  0.70828271    -0.07000
C281        C  0.09167458  0.24131959  0.72984753    -0.18300
C282        C  0.07992104  0.21863400  0.74954645     0.10100
S283        S  0.04397205  0.17237307  0.67989984    -0.33200
S284        S  0.09130876  0.23824276  0.77643273    -0.33200
H285        H  0.09914842  0.21438725  0.78573234     0.28100
H286        H  0.07484370  0.19663547  0.66730488     0.28100
H287        H  0.02868777  0.14167775  0.72490235     0.18700
H288        H  0.10779102  0.26931588  0.73170579     0.18700
C289        C  0.11448732  0.14051292  0.84972356    -0.07100
C290        C  0.12080394  0.12423686  0.86834123    -0.18200
C291        C  0.15140389  0.12483355  0.86939694     0.10100
C292        C  0.17606093  0.14056574  0.85096435    -0.07000
C293        C  0.17099006  0.15917602  0.83323620    -0.18300
C294        C  0.14127417  0.16027213  0.83277043     0.10100
S295        S  0.15731164  0.10511460  0.89473688    -0.33200
S296        S  0.13974544  0.18764182  0.81017094    -0.33200
H297        H  0.12447721  0.20043255  0.82417713     0.28100
H298        H  0.19322679  0.12926836  0.89440753     0.28100
H299        H  0.10148252  0.11012478  0.88214556     0.18700
H300        H  0.18963124  0.17192321  0.81896908     0.18700
C301        C  0.00064766  0.09078597  0.88612624    -0.07100
C302        C  0.01176250  0.10495416  0.90730105    -0.18200
C303        C  0.99707052  0.08435125  0.92780971     0.10100
C304        C  0.97079194  0.04852920  0.92704735    -0.07000
C305        C  0.45315847  0.04085865  0.90754430    -0.18300
C306        C  0.97261996  0.05573637  0.88560058     0.10100
S307        S  0.01592237  0.10466277  0.95372755    -0.33200
S308        S  0.44967368  0.04396622  0.86120394    -0.33200
H309        H  0.44775461  0.07307125  0.85451153     0.28100
H310        H  0.98939987  0.07991236  0.96913274     0.28100
H311        H  0.03358941  0.13174865  0.90780441     0.18700
H312        H  0.42950454  0.01536183  0.90667055     0.18700
C313        C  0.44214906  0.27757347  0.84737246    -0.07100
C314        C  0.40973643  0.26999187  0.85527357    -0.18200
C315        C  0.37960817  0.23800262  0.85143478     0.10100
C316        C  0.38189840  0.21302678  0.83962057    -0.07000
C317        C  0.41443955  0.21917673  0.83384239    -0.18300
C318        C  0.44459907  0.25111303  0.83770012     0.10100
S319        S  0.33880128  0.23176308  0.85988701    -0.33200
S320        S  0.48521875  0.25702131  0.82906811    -0.33200
H321        H  0.50426974  0.28007871  0.84580031     0.28100
H322        H  0.32071157  0.19493465  0.86200959     0.28100
H323        H  0.40764670  0.28991710  0.86314289     0.18700
H324        H  0.41630107  0.20013679  0.82458209     0.18700
C325        C  0.50724701  0.38363558  0.88819275    -0.07100
C326        C  0.51516785  0.41819505  0.88539584    -0.18200
C327        C  0.51133062  0.43446984  0.90372718     0.10100
C328        C  0.49936018  0.41568493  0.92518775    -0.07000
C329        C  0.49461250  0.38251238  0.92840653    -0.18300
C330        C  0.00355313  0.37031498  0.90792597     0.10100
S331        S  0.52229199  0.47922948  0.89963058    -0.33200
S332        S  0.00039717  0.32900669  0.91245833    -0.33200
H333        H  0.02262469  0.33473083  0.89372596     0.28100
H334        H  0.52465718  0.48146378  0.87570554     0.28100
H335        H  0.52276132  0.43182225  0.86864409     0.18700
H336        H  0.99351258  0.37104878  0.94349521     0.18700
C337        C  0.11949815  0.98004774  0.78677651    -0.07100
C338        C  0.11159827  0.00245518  0.79691565    -0.18200
C339        C  0.13773448  0.03664141  0.80150386     0.10100
C340        C  0.17237049  0.04848567  0.79606242    -0.07000
C341        C  0.17996846  0.02779751  0.78362443    -0.18300
C342        C  0.15394070  0.99373697  0.77873066     0.10100
S343        S  0.12727685  0.06387308  0.81640226    -0.33200
S344        S  0.16641240  0.96708684  0.76509569    -0.33200
H345        H  0.20236812  0.49726784  0.76510595     0.28100
H346        H  0.09120556  0.04106259  0.81649329     0.28100
H347        H  0.08514154  0.99248328  0.80236879     0.18700
H348        H  0.20674287  0.03691014  0.77991338     0.18700
C349        C  0.06950647  0.37328616  0.75104346    -0.07100
C350        C  0.08064621  0.39335573  0.73009515    -0.18200
C351        C  0.08546107  0.38016362  0.71055121     0.10100
C352        C  0.07861033  0.34589408  0.71180272    -0.07000
C353        C  0.06650334  0.32527184  0.73244676    -0.18300
C354        C  0.06267798  0.33883811  0.75221665     0.10100
S355        S  0.10047358  0.40840773  0.68465499    -0.33200
S356        S  0.05232852  0.31207869  0.77844634    -0.33200
H357        H  0.07669286  0.33979745  0.79092224     0.28100
H358        H  0.08488176  0.38145773  0.66963517     0.28100
H359        H  0.08597255  0.41978617  0.72893526     0.18700
H360        H  0.06205423  0.29917129  0.73346117     0.18700
C361        C  0.29056719  0.47580701  0.84884742    -0.07100
C362        C  0.26073960  0.96820550  0.84353734    -0.18200
C363        C  0.25370359  0.99459106  0.84449517     0.10100
C364        C  0.27807687  0.02722044  0.85313045    -0.07000
C365        C  0.30893825  0.03201793  0.86084858    -0.18300
C366        C  0.31631512  0.00572421  0.85947582     0.10100
S367        S  0.21429599  0.98575822  0.83252556    -0.33200
S368        S  0.35798762  0.01514019  0.86761974    -0.33200
H369        H  0.36842707  0.54607180  0.87646040     0.28100
H370        H  0.23060417  0.01725129  0.81859376     0.28100
H371        H  0.24708057  0.45399015  0.82753512     0.18700
H372        H  0.32785320  0.05697783  0.86723100     0.18700
C373        C  0.32147904  0.39936016  0.88686408    -0.07100
C374        C  0.35453664  0.40528000  0.88423729    -0.18200
C375        C  0.37515970  0.41180752  0.90294453     0.10100
C376        C  0.36245928  0.41234662  0.92490534    -0.07000
C377        C  0.32812393  0.40306411  0.92766879    -0.18300
C378        C  0.30757656  0.39643656  0.90900947     0.10100
S379        S  0.43711481  0.95222123  0.89477308    -0.33200
S380        S  0.26459687  0.38695291  0.91430650    -0.33200
H381        H  0.25117054  0.36940355  0.89440756     0.28100
H382        H  0.43983146  0.92554619  0.90569559     0.28100
H383        H  0.36561315  0.40813518  0.86727503     0.18700
H384        H  0.31779961  0.40289918  0.94437300     0.18700
C385        C  0.27451195  0.23513970  0.78450829    -0.07100
C386        C  0.25831548  0.23916002  0.80347025    -0.18200
C387        C  0.25706017  0.26919286  0.80525918     0.10100
C388        C  0.27375334  0.29703394  0.78817900    -0.07000
C389        C  0.28922441  0.29263757  0.76890455    -0.18300
C390        C  0.28947409  0.26204890  0.76680656     0.10100
S391        S  0.23259991  0.26961419  0.82928317    -0.33200
S392        S  0.30854125  0.25854188  0.74096055    -0.33200
H393        H  0.28668208  0.22181105  0.74089427     0.28100
H394        H  0.21903548  0.28659867  0.81708921     0.28100
H395        H  0.24717542  0.21905804  0.81734580     0.18700
H396        H  0.30128675  0.31326452  0.75530194     0.18700
C397        C  0.22655052  0.37906030  0.70733776    -0.07100
C398        C  0.25812462  0.38123111  0.70719374    -0.18200
C399        C  0.27501965  0.38461126  0.72726685     0.10100
C400        C  0.25967622  0.38467534  0.74817380    -0.07000
C401        C  0.23110012  0.38793340  0.74795075    -0.18300
C402        C  0.21485083  0.38598685  0.72761097     0.10100
S403        S  0.31503636  0.38638299  0.72544040    -0.33200
S404        S  0.17899442  0.39160826  0.72876635    -0.33200
H405        H  0.18381912  0.40496741  0.70598027     0.28100
H406        H  0.32772748  0.40377318  0.74549795     0.28100
H407        H  0.26859186  0.37773630  0.69169857     0.18700
H408        H  0.21993330  0.38949700  0.76382111     0.18700
C409        C  0.47536418  0.08233792  0.44514253    -0.07100
C410        C  0.49881024  0.11108254  0.45734635    -0.18200
C411        C  0.49765219  0.14135724  0.45786143     0.10100
C412        C  0.47179300  0.14303376  0.44645200    -0.07000
C413        C  0.45044490  0.11578696  0.43260575    -0.18300
C414        C  0.45195168  0.08575215  0.43164762     0.10100
S415        S  0.03031497  0.17408241  0.47346863    -0.33200
S416        S  0.42099466  0.05100205  0.41487773    -0.33200
H417        H  0.41199672  0.07133422  0.40165599     0.28100
H418        H  0.03332291  0.20123442  0.45887075     0.28100
H419        H  0.01674598  0.10683479  0.46599550     0.18700
H420        H  0.43080321  0.11689495  0.42352659     0.18700
C421        C  0.45518057  0.29513020  0.51824575    -0.07100
C422        C  0.42470878  0.29086171  0.51030398    -0.18200
C423        C  0.41833284  0.31778707  0.51128455     0.10100
C424        C  0.44285705  0.34957888  0.52049930    -0.07000
C425        C  0.47244411  0.35299059  0.52951027    -0.18300
C426        C  0.47927316  0.32656587  0.52808504     0.10100
S427        S  0.88546920  0.31482188  0.49983961    -0.33200
S428        S  0.52045504  0.33496957  0.53671983    -0.33200
H429        H  0.53470642  0.36977641  0.54244656     0.28100
H430        H  0.87427233  0.28284635  0.49017489     0.28100
H431        H  0.40601360  0.26644193  0.50322484     0.18700
H432        H  0.49177504  0.37772776  0.53595030     0.18700
C433        C  0.49775676  0.22652801  0.55157049    -0.07100
C434        C  0.47939570  0.21470800  0.57272801    -0.18200
C435        C  0.99899462  0.22260362  0.59430418     0.10100
C436        C  0.03517459  0.23737262  0.59342528    -0.07000
C437        C  0.05203786  0.24201553  0.57212242    -0.18300
C438        C  0.03492455  0.23648288  0.55191803     0.10100
S439        S  0.97361740  0.21082460  0.62084639    -0.33200
S440        S  0.05990246  0.24732635  0.52552174    -0.33200
H441        H  0.03496205  0.21657769  0.51570977     0.28100
H442        H  0.94317328  0.20509094  0.61164743     0.28100
H443        H  0.45191328  0.20385255  0.57327199     0.18700
H444        H  0.07940569  0.25227849  0.57092521     0.18700
C445        C  0.37220740  0.36030648  0.45116590    -0.07100
C446        C  0.37115565  0.33173326  0.44222156    -0.18200
C447        C  0.34124380  0.29772640  0.44533577     0.10100
C448        C  0.31172675  0.29248050  0.45741731    -0.07000
C449        C  0.31369535  0.32080760  0.46732710    -0.18300
C450        C  0.34357269  0.35426195  0.46469776     0.10100
S451        S  0.34169666  0.26121439  0.43475947    -0.33200
S452        S  0.34374678  0.38782809  0.47986792    -0.33200
H453        H  0.37804378  0.40352340  0.48624501     0.28100
H454        H  0.37592173  0.28058511  0.42563729     0.28100
H455        H  0.39357953  0.33619650  0.43263397     0.18700
H456        H  0.29157652  0.31701725  0.47699128     0.18700
C457        C  0.04549445  0.06638597  0.51862947    -0.07100
C458        C  0.05980586  0.08563993  0.49765304    -0.18200
C459        C  0.09214201  0.11714502  0.49589846     0.10100
C460        C  0.11116882  0.12970321  0.51559387    -0.07000
C461        C  0.09649812  0.11043100  0.53664042    -0.18300
C462        C  0.06403764  0.07905560  0.53835281     0.10100
S463        S  0.10699396  0.14005678  0.46813888    -0.33200
S464        S  0.04788065  0.05632047  0.56610771    -0.33200
H465        H  0.01271834  0.03851113  0.56157027     0.28100
H466        H  0.11860824  0.17321752  0.47611085     0.28100
H467        H  0.04607001  0.07552385  0.48233826     0.18700
H468        H  0.11059321  0.11966785  0.55193593     0.18700
C469        C  0.18308381  0.26900348  0.58950413    -0.07100
C470        C  0.17896452  0.23623153  0.59361328    -0.18200
C471        C  0.18311770  0.21920916  0.57591953     0.10100
C472        C  0.19065565  0.23476483  0.55343961    -0.07000
C473        C  0.19678035  0.26847355  0.54952811    -0.18300
C474        C  0.19268784  0.28554709  0.56728280     0.10100
S475        S  0.17783093  0.17733197  0.58297927    -0.33200
S476        S  0.19617693  0.32645282  0.56017449    -0.33200
H477        H  0.16416232  0.31526043  0.57107115     0.28100
H478        H  0.19895850  0.17948747  0.56461858     0.28100
H479        H  0.17203091  0.22361575  0.61068484     0.18700
H480        H  0.20186719  0.28026903  0.53228901     0.18700
C481        C  0.11459803  0.46099347  0.46766926    -0.07100
C482        C  0.11047372  0.48881756  0.46154244    -0.18200
C483        C  0.07923624  0.48614484  0.46597869     0.10100
C484        C  0.05102578  0.45464977  0.47633130    -0.07000
C485        C  0.05496763  0.42666705  0.48236265    -0.18300
C486        C  0.08636606  0.42941586  0.47806855     0.10100
S487        S  0.07776018  0.52460696  0.45949751    -0.33200
S488        S  0.08868357  0.39189986  0.48625583    -0.33200
H489        H  0.11162748  0.39707338  0.46818289     0.28100
H490        H  0.04232431  0.50646618  0.45598342     0.28100
H491        H  0.13210581  0.51323848  0.45370312     0.18700
H492        H  0.03369283  0.40285630  0.49108021     0.18700
C493        C  0.36806924  0.48202111  0.48748527    -0.07100
C494        C  0.36162911  0.00631749  0.47976806    -0.18200
C495        C  0.33151852  0.00548160  0.48536683     0.10100
C496        C  0.30486553  0.47639350  0.49766606    -0.07000
C497        C  0.31631183  0.45898014  0.51179410    -0.18300
C498        C  0.34792953  0.46236978  0.50728424     0.10100
S499        S  0.32540213  0.03704296  0.47013032    -0.33200
S500        S  0.36009297  0.43931658  0.52661487    -0.33200
H501        H  0.39201620  0.46967866  0.53064527     0.28100
H502        H  0.31084810  0.04306355  0.48913118     0.28100
H503        H  0.37859201  0.02398059  0.46569530     0.18700
H504        H  0.30032642  0.44204605  0.52638488     0.18700
C505        C  0.18011050  0.38694646  0.59231422    -0.07100
C506        C  0.21309985  0.41803919  0.59093927    -0.18200
C507        C  0.22599922  0.44040956  0.57119270     0.10100
C508        C  0.20610011  0.43136293  0.55180345    -0.07000
C509        C  0.17168237  0.40277289  0.55389064    -0.18300
C510        C  0.15821548  0.38069577  0.57404010     0.10100
S511        S  0.26843374  0.47978848  0.57176773    -0.33200
S512        S  0.11346156  0.34472167  0.57577804    -0.33200
H513        H  0.10500063  0.35135787  0.55410088     0.28100
H514        H  0.26197724  0.49988007  0.55617185     0.28100
H515        H  0.22988652  0.42441591  0.60499454     0.18700
H516        H  0.15596801  0.39650338  0.53927112     0.18700
C517        C  0.38258296  0.20004503  0.37901588    -0.07100
C518        C  0.36520818  0.18404347  0.40028587    -0.18200
C519        C  0.38336046  0.18659371  0.41967694     0.10100
C520        C  0.41962094  0.20597072  0.41792628    -0.07000
C521        C  0.43705115  0.22541116  0.39754683    -0.18300
C522        C  0.41890272  0.22350585  0.37826308     0.10100
S523        S  0.36014677  0.16224468  0.44600404    -0.33200
S524        S  0.44359141  0.25142759  0.35339220    -0.33200
H525        H  0.41748423  0.25637404  0.34610541     0.28100
H526        H  0.32675973  0.14589860  0.43785389     0.28100
H527        H  0.33736165  0.16722796  0.40143764     0.18700
H528        H  0.46500016  0.24125153  0.39644704     0.18700
C529        C  0.23200582  0.15724451  0.38173650    -0.07100
C530        C  0.23722999  0.19066715  0.37901588    -0.18200
C531        C  0.23438999  0.20692090  0.39761326     0.10100
C532        C  0.22710131  0.18985517  0.41958456    -0.07000
C533        C  0.21859083  0.15512023  0.42207978    -0.18300
C534        C  0.22128234  0.13870896  0.40338591     0.10100
S535        S  0.24167556  0.25002625  0.39239104    -0.33200
S536        S  0.21477621  0.09604841  0.40875211    -0.33200
H537        H  0.24578843  0.10554552  0.39715811     0.28100
H538        H  0.22205580  0.24785536  0.41169629     0.28100
H539        H  0.24472987  0.20470670  0.36236518     0.18700
H540        H  0.21311062  0.14197061  0.43893447     0.18700
C541        C  0.24568224  0.04652417  0.37396343    -0.07100
C542        C  0.21414299  0.01379727  0.37443293    -0.18200
C543        C  0.18971437  0.49369395  0.39316536     0.10100
C544        C  0.21012284  0.50127532  0.41230932    -0.07000
C545        C  0.25166144  0.03296000  0.41349803    -0.18300
C546        C  0.26609190  0.05415428  0.39320424     0.10100
S547        S  0.14578885  0.45662064  0.39298077    -0.33200
S548        S  0.31009519  0.09083591  0.39338175    -0.33200
H549        H  0.31802370  0.08922983  0.37050130     0.28100
H550        H  0.15040567  0.43475051  0.40821530     0.28100
H551        H  0.19885133  0.00604284  0.35956438     0.18700
H552        H  0.26622272  0.04091135  0.42869567     0.18700
C553        C  0.30851514  0.29916789  0.11893467    -0.07100
C554        C  0.30273587  0.31513360  0.09980757    -0.18200
C555        C  0.27222942  0.31460961  0.09798790     0.10100
C556        C  0.24702376  0.29919811  0.11610144    -0.07000
C557        C  0.25145541  0.28071034  0.13424246    -0.18300
C558        C  0.28107403  0.27951368  0.13545146     0.10100
S559        S  0.26719722  0.33407791  0.07216112    -0.33200
S560        S  0.28143464  0.25187589  0.15828018    -0.33200
H561        H  0.29768123  0.23948315  0.14485305     0.28100
H562        H  0.23118480  0.31061065  0.07232909     0.28100
H563        H  0.32241501  0.32901021  0.08618118     0.18700
H564        H  0.23232269  0.26808304  0.14825000     0.18700
C565        C  0.45233242  0.39801259  0.04499582    -0.07100
C566        C  0.46071938  0.41212581  0.06632691    -0.18200
C567        C  0.44725469  0.39059922  0.08643516     0.10100
C568        C  0.42413121  0.35412192  0.08530647    -0.07000
C569        C  0.41703313  0.33978280  0.06398787    -0.18300
C570        C  0.43124172  0.36138062  0.04376384     0.10100
S571        S  0.45717777  0.41157484  0.11286878    -0.33200
S572        S  0.41970639  0.34245473  0.01658583    -0.33200
H573        H  0.39831986  0.30725850  0.02516741     0.28100
H574        H  0.46551108  0.38877091  0.12338302     0.28100
H575        H  0.47731612  0.44031562  0.06731261     0.18700
H576        H  0.39867699  0.31185381  0.06322073     0.18700
C577        C  0.05112371  0.32474211  0.18480579    -0.07100
C578        C  0.04525582  0.34483004  0.16865946    -0.18200
C579        C  0.51026813  0.33886808  0.17123462     0.10100
C580        C  0.48232320  0.31593761  0.18679919    -0.07000
C581        C  0.48736428  0.29612935  0.20362216    -0.18300
C582        C  0.02752632  0.30807632  0.20387346     0.10100
S583        S  0.51008864  0.37071040  0.15178107    -0.33200
S584        S  0.03570682  0.28731855  0.22776202    -0.33200
H585        H  0.00706680  0.27917073  0.24188665     0.28100
H586        H  0.49133990  0.37819750  0.16693715     0.28100
H587        H  0.06378470  0.35954202  0.15451423     0.18700
H588        H  0.46688431  0.27938369  0.21627336     0.18700
C589        C  0.36783353  0.26122284  0.22306507    -0.07100
C590        C  0.37934777  0.27382463  0.24447801    -0.18200
C591        C  0.36589676  0.25167829  0.26442202     0.10100
C592        C  0.34116513  0.21535500  0.26302328    -0.01000
C593        C  0.32690289  0.20376108  0.24184357    -0.18300
C594        C  0.33984184  0.22621676  0.22198564     0.10100
S595        S  0.38262836  0.27143092  0.29080038    -0.33200
S596        S  0.32289201  0.20732006  0.19551476    -0.33200
H597        H  0.31825814  0.23438629  0.18835091     0.28100
H598        H  0.35111271  0.24979307  0.30345120     0.28100
H599        H  0.40040651  0.30086298  0.24555528     0.18700
H600        H  0.30735975  0.17631207  0.24028086     0.18700
C601        C  0.30817041  0.45920881  0.18019094    -0.07100
C602        C  0.31483548  0.43732088  0.16819153    -0.18200
C603        C  0.28780660  0.40451692  0.16207154     0.10100
C604        C  0.25351293  0.39306976  0.16843230    -0.07000
C605        C  0.24695735  0.41344012  0.18203070    -0.18300
C606        C  0.27380161  0.44658604  0.18783335     0.10100
S607        S  0.29680896  0.37891919  0.14412922    -0.33200
S608        S  0.26292811  0.47393148  0.20228241    -0.33200
H609        H  0.22686888  0.45171307  0.20178529     0.28100
H610        H  0.33295653  0.40143663  0.14304718     0.28100
H611        H  0.34109212  0.44688966  0.16245165     0.18700
H612        H  0.22042015  0.40471026  0.18625362     0.18700
C613        C  0.36112843  0.07272030  0.21909045    -0.07100
C614        C  0.34765403  0.05231075  0.23983422    -0.18200
C615        C  0.34442160  0.06652350  0.25939131     0.10100
C616        C  0.35387743  0.10174527  0.25825823    -0.07000
C617        C  0.36953464  0.12297167  0.23816255    -0.18300
C618        C  0.37372519  0.10905579  0.21866800     0.10100
S619        S  0.31032992  0.52767990  0.28424105    -0.33200
S620        S  0.39285495  0.13870696  0.19368631    -0.33200
H621        H  0.42087247  0.13442042  0.19218727     0.28100
H622        H  0.34630672  0.06541236  0.29993332     0.28100
H623        H  0.33132706  0.51651530  0.24220459     0.18700
H624        H  0.37702019  0.15016391  0.23731242     0.18700
C625        C  0.47832760  0.16062264  0.12361053    -0.07100
C626        C  0.51055148  0.16760049  0.11571805    -0.18200
C627        C  0.04083024  0.20329617  0.11782439     0.10100
C628        C  0.03896323  0.22727978  0.13104409    -0.07000
C629        C  0.00662980  0.21999107  0.13871138    -0.18300
C630        C  0.47669738  0.18736634  0.13362527     0.10100
S631        S  0.08109448  0.21162992  0.10602178    -0.33200
S632        S  0.43666307  0.18346056  0.14106486    -0.33200
H633        H  0.41796946  0.16097117  0.12400770     0.28100
H634        H  0.09671249  0.24813972  0.10274911     0.28100
H635        H  0.51218401  0.14772654  0.10739760     0.18700
H636        H  0.00511169  0.23858460  0.14872252     0.18700
C637        C  0.41756557  0.05344730  0.08355569    -0.07100
C638        C  0.42749171  0.07252437  0.06227081    -0.18200
C639        C  0.43010177  0.05793147  0.04268364     0.10100
C640        C  0.42159853  0.02301613  0.04415389    -0.07000
C641        C  0.41067949  0.00348025  0.06523658    -0.18300
C642        C  0.40878443  0.01828995  0.08504081     0.10100
S643        S  0.44715636  0.08611844  0.01683867    -0.33200
S644        S  0.39825302  0.99292656  0.11204071    -0.33200
H645        H  0.38986235  0.96105318  0.10334275     0.28100
H646        H  0.46855926  0.07444755  0.01020346     0.28100
H647        H  0.43454966  0.09957271  0.06099381     0.18700
H648        H  0.40479739  0.97685898  0.06623244     0.18700
C649        C  0.14640349  0.14420319  0.18007030    -0.07100
C650        C  0.13080907  0.14896798  0.19906580    -0.18200
C651        C  0.13055711  0.17963032  0.20066647     0.10100
C652        C  0.14675468  0.20669137  0.18305188    -0.07000
C653        C  0.16271696  0.20203935  0.16426644    -0.18300
C654        C  0.16291893  0.17145895  0.16261121     0.10100
S655        S  0.10900683  0.18244209  0.22549826    -0.33200
S656        S  0.18504340  0.16924429  0.13787031    -0.33200
H657        H  0.19870326  0.15191324  0.14948845     0.28100
H658        H  0.13031116  0.21912558  0.22607731     0.28100
H659        H  0.11830977  0.12839367  0.21268241     0.18700
H660        H  0.17419186  0.22194459  0.15028359     0.18700
C661        C  0.20187899  0.06403618  0.25870837    -0.07100
C662        C  0.16877164  0.05845664  0.25999651    -0.18200
C663        C  0.15146676  0.05677722  0.24043722     0.10100
C664        C  0.16713445  0.06030796  0.21887099    -0.07000
C665        C  0.19805696  0.06128768  0.21750604    -0.18300
C666        C  0.21565907  0.06306810  0.23721454     0.10100
S667        S  0.10987661  0.55873517  0.23799598    -0.33200
S668        S  0.25589579  0.06514170  0.23444047    -0.33200
H669        H  0.25599407  0.06197904  0.21081718     0.28100
H670        H  0.09756781  0.54210751  0.21766032     0.28100
H671        H  0.15718413  0.05807305  0.27624818     0.18700
H672        H  0.20968837  0.06339250  0.20089410     0.18700
C673        C  0.13300301  0.46713638  0.11594420    -0.07100
C674        C  0.16207948  0.46997358  0.12534001    -0.18200
C675        C  0.16775062  0.44261091  0.12493257     0.10100
C676        C  0.14452017  0.41172185  0.11412595    -0.07000
C677        C  0.11480877  0.40831199  0.10537301    -0.18300
C678        C  0.10863598  0.43545403  0.10627519     0.10100
S679        S  0.20379891  0.44787771  0.14004408    -0.33200
S680        S  0.06867440  0.42833039  0.09611289    -0.33200
H681        H  0.05251651  0.39223297  0.09325599     0.28100
H682        H  0.18543410  0.41354158  0.15046592     0.28100
H683        H  0.18046066  0.49364101  0.13332201     0.18700
H684        H  0.09632082  0.38419415  0.09789917     0.18700
C685        C  0.09525171  0.53921847  0.07931082    -0.07100
C686        C  0.11453029  0.04917580  0.06125823    -0.18200
C687        C  0.09822112  0.04611167  0.04091556     0.10100
C688        C  0.05715490  0.52921083  0.04035053    -0.07000
C689        C  0.04240884  0.52622646  0.06205392    -0.18300
C690        C  0.06118233  0.53136602  0.08152785     0.10100
S691        S  0.12267338  0.05407716  0.01459359    -0.33200
S692        S  0.03874739  0.52241120  0.10878293    -0.33200
H693        H  0.06553164  0.55288381  0.11784129     0.28100
H694        H  0.10265602  0.06214777  0.00107873     0.28100
H695        H  0.14051403  0.05464469  0.06061470     0.18700
H696        H  0.01525018  0.51673749  0.06405558     0.18700
C697        C  0.11074784  0.03446626  0.10242772     0.79200
N698        N  0.11441351  0.00681795  0.10197741    -0.79100
C699        C  0.12461177  0.99621880  0.12031303     0.81700
N700        N  0.13239514  0.01464244  0.13927926    -0.79000
C701        C  0.13443681  0.54531966  0.13503750     0.81800
N702        N  0.12099469  0.55292071  0.11694264    -0.80700
C703        C  0.15711034  0.57268018  0.19387328     0.79200
N704        N  0.15129960  0.55497024  0.17478657    -0.79100
C705        C  0.14312590  0.56596823  0.15533964     0.81700
N706        N  0.14160792  0.59527226  0.15505990    -0.79000
C707        C  0.14810391  0.61329455  0.17410499     0.81800
N708        N  0.15548751  0.60160906  0.19330577    -0.80700
C709        C  0.44977824  0.62245454  0.12476771     0.79200
N710        N  0.44576198  0.60544034  0.10568038    -0.79100
C711        C  0.42100019  0.57090755  0.10524568     0.81700
N712        N  0.40037081  0.55307535  0.12413840    -0.79000
C713        C  0.40421131  0.56972456  0.14343046     0.81800
N714        N  0.42906801  0.60448424  0.14372711    -0.80700
C715        C  0.33028332  0.00198688  0.17934148     0.79200
N716        N  0.35173166  0.01951478  0.16064493    -0.79100
C717        C  0.38201124  0.54974341  0.16390748     0.81700
N718        N  0.38376352  0.56629710  0.18293277    -0.79000
C719        C  0.36211872  0.54817112  0.20146380     0.81800
N720        N  0.33406928  0.01949518  0.19813888    -0.80700
C721        C  0.45051975  0.81158774  0.18492813     0.79200
N722        N  0.43956150  0.81945680  0.16550955    -0.79100
C723        C  0.40603669  0.81005081  0.16423742     0.81700
N724        N  0.38320599  0.79153844  0.18234205    -0.79000
C725        C  0.39401456  0.78325926  0.20160214     0.81800
N726        N  0.42741813  0.79361602  0.20265421    -0.80700
C727        C  0.34952112  0.81705734  0.12251867     0.79200
N728        N  0.36107586  0.81069626  0.14218800    -0.79100
C729        C  0.39401052  0.81817725  0.14292929     0.81700
N730        N  0.41568181  0.83304956  0.12389885    -0.79000
C731        C  0.40415369  0.83942905  0.10424774     0.81800
N732        N  0.37133784  0.83126368  0.10384386    -0.80700
O733        O  0.17453547  0.88681376  0.11426764    -0.81900
O734        O  0.16756893  0.76675974  0.17685299    -0.66600
O735        O  0.15678304  0.81859893  0.12891364    -1.13200
C736        C  0.07398948  0.81339216  0.18196296     1.05000
O737        O  0.11122149  0.73160439  0.18407703    -0.79800
O738        O  0.06493281  0.74235006  0.16586117    -0.67300
Ni739      Ni  0.19491479  0.85898479  0.11288998     1.34900
C740        C  0.06441890  0.75047976  0.14506513     0.83800
O741        O  0.19625739  0.78914855  0.13535887    -0.80300
O742        O  0.22081994  0.83677067  0.11099239    -0.90600
C743        C  0.14095217  0.73628061  0.18141420     0.83300
O744        O  0.21854580  0.88054112  0.13880411    -0.68800
O745        O  0.07756301  0.79199951  0.19473516    -0.88100
C746        C  0.22194256  0.86866382  0.15775697     0.84200
C747        C  0.22025947  0.81074545  0.12095990     1.05700
H748        H  0.14675947  0.81947365  0.18055031     0.37500
O749        O  0.13350857  0.80147529  0.17027107    -1.10700
O750        O  0.08674400  0.78010369  0.13486545    -0.67400
Ni751      Ni  0.12405180  0.82345930  0.14591289     1.26300
O752        O  0.20365957  0.83632033  0.16502206    -0.67600
O753        O  0.09121935  0.82747998  0.16316097    -0.79900
C754        C  0.14394169  0.87989031  0.11687715     0.83500
O755        O  0.11863228  0.84874558  0.12151317    -0.67100
Ni756      Ni  0.09654704  0.76383243  0.18890961     1.27400
Ni757      Ni  0.16466503  0.79465597  0.15301332     1.26100
H758        H  0.14479518  0.80193473  0.11757971     0.38100
O759        O  0.20287472  0.57590417  0.29613790    -0.81900
O760        O  0.32578936  0.66584683  0.36048619    -0.66600
O761        O  0.26184379  0.63225003  0.31402294    -1.13200
C762        C  0.33774063  0.60889976  0.27759650     1.05000
O763        O  0.37440520  0.68854748  0.33933709    -0.79800
O764        O  0.35736101  0.69381637  0.29508049    -0.67300
Ni765      Ni  0.21455023  0.59911730  0.32432789     1.34900
C766        C  0.33614725  0.68644417  0.27950227     0.83800
O767        O  0.27087879  0.66771028  0.35218779    -0.80300
O768        O  0.21824189  0.61932548  0.35337578    -0.90600
C769        C  0.35835651  0.68370369  0.35837833     0.83300
O770        O  0.22559715  0.56724797  0.33754117    -0.68800
O771        O  0.36097795  0.63711475  0.28586400    -0.88100
C772        C  0.24517410  0.57454448  0.35411757     0.84200
C773        C  0.24024747  0.64902355  0.36058910     1.05700
H774        H  0.31329929  0.61008482  0.33042267     0.37500
O775        O  0.31580821  0.63006290  0.32168992    -1.10700
O776        O  0.30916820  0.65581917  0.27843546    -0.67400
Ni777      Ni  0.28391290  0.61316720  0.29820848     1.26300
O778        O  0.26917333  0.60607374  0.35709226    -0.67600
O779        O  0.30596679  0.59367093  0.28334268    -0.79900
C780        C  0.21894642  0.58001655  0.27724230     0.83500
O781        O  0.25149626  0.59656434  0.27525181    -0.67100
Ni782      Ni  0.36388858  0.66145851  0.31270999     1.27400
Ni783      Ni  0.29370713  0.64908513  0.33742658     1.26100
H784        H  0.26357344  0.65176329  0.30517019     0.38100
C785        C  0.27296398  0.97460447  0.50735308     0.79200
N786        N  0.25117997  0.47264107  0.48609217    -0.79100
C787        C  0.22197991  0.96941124  0.49457124     0.81700
N788        N  0.20668688  0.95646692  0.51572985    -0.79000
C789        C  0.22434836  0.95288962  0.53274338     0.81800
N790        N  0.25714727  0.96159010  0.52832427    -0.80700
C791        C  0.15132993  0.96630129  0.46238802     0.79200
N792        N  0.16916308  0.96348227  0.47974437    -0.79100
C793        C  0.20240077  0.97248709  0.47595775     0.81700
N794        N  0.21779483  0.98457964  0.45476887    -0.79000
C795        C  0.20029227  0.98725341  0.43733813     0.81800
N796        N  0.16732230  0.97851100  0.44133667    -0.80700
C797        C  0.18486968  0.71532150  0.53394883     0.79200
N798        N  0.15294920  0.68623759  0.53347674    -0.79100
C799        C  0.14256794  0.66718766  0.51509609     0.81700
N800        N  0.16483528  0.67759175  0.49652347    -0.79000
C801        C  0.19714773  0.70731396  0.49664883     0.81800
N802        N  0.20690582  0.72627386  0.51537610    -0.80700
C803        C  0.23548257  0.71261719  0.43951124     0.79200
N804        N  0.21269385  0.70089177  0.45779906    -0.79100
C805        C  0.22177662  0.71919460  0.47680994     0.81700
N806        N  0.25383138  0.74896109  0.47739147    -0.79000
C807        C  0.27696040  0.76003367  0.45931887     0.81800
N808        N  0.26738197  0.74181880  0.44052882    -0.80700
C809        C  0.48152306  0.73090954  0.53209890     0.79200
N810        N  0.47209004  0.75429982  0.53405587    -0.79100
C811        C  0.45846838  0.76265419  0.51663379     0.81700
N812        N  0.45311644  0.74637491  0.49700105    -0.79000
C813        C  0.46184830  0.72230035  0.49467891     0.81800
N814        N  0.47661081  0.71490932  0.51221828    -0.80700
C815        C  0.43369825  0.69644647  0.43630815     0.79200
N816        N  0.44349435  0.67357282  0.43313494    -0.79100
C817        C  0.45930590  0.66610328  0.44958049     0.81700
N818        N  0.46490021  0.68170649  0.46963629    -0.79000
C819        C  0.45555416  0.70505379  0.47298062     0.81800
N820        N  0.43963824  0.71211533  0.45625454    -0.80700
O821        O  0.39735630  0.92295086  0.44469881    -0.81900
O822        O  0.98394162  0.52862571  0.51449223    -0.66600
O823        O  0.45912910  0.97330594  0.46238589    -1.13200
C824        C  0.44764944  0.88346397  0.51489649     1.05000
O825        O  0.01852889  0.51156769  0.52610943    -0.79800
O826        O  0.01666758  0.95094154  0.50468824    -0.67300
Ni827      Ni  0.42873033  0.97328621  0.44102157     1.34900
C828        C  0.01794731  0.94671556  0.48364338     0.83800
O829        O  0.47784541  0.53999248  0.46828538    -0.80300
O830        O  0.45715583  0.52189685  0.43400121    -0.90600
C831        C  0.01234979  0.53542679  0.52207826     0.83300
O832        O  0.39919630  0.97783912  0.46169423    -0.68800
O833        O  0.46414525  0.90739731  0.52866090    -0.88100
C834        C  0.39974352  0.98374214  0.48259159     0.84200
C835        C  0.47008238  0.54536519  0.44845236     1.05700
H836        H  0.43807368  0.94943129  0.51319030     0.37500
O837        O  0.45953940  0.95832000  0.50453427    -1.10700
O838        O  0.49455026  0.94179917  0.47205474    -0.67400
Ni839      Ni  0.44791702  0.93073643  0.47909264     1.26300
O840        O  0.42238595  0.48795414  0.49217080    -0.67600
O841        O  0.43759647  0.88866025  0.49599613    -0.79900
C842        C  0.40202109  0.89795453  0.44869172     0.83500
O843        O  0.43155408  0.90423413  0.45325171    -0.67100
Ni844      Ni  0.98614343  0.95487811  0.52462290     1.27400
Ni845      Ni  0.46876374  0.49904450  0.48604110     1.26100
H846        H  0.48053635  0.98214074  0.45363946     0.38100
C847        C  0.26176695  0.86613464  0.77138111     0.79200
N848        N  0.26225485  0.83653164  0.77197228    -0.79100
C849        C  0.27208195  0.82595447  0.79050314     0.81700
N850        N  0.28211330  0.84592546  0.80880575    -0.79000
C851        C  0.28142606  0.87572945  0.80860838     0.81800
N852        N  0.27099799  0.88565694  0.78981175    -0.80700
C853        C  0.31857032  0.91051038  0.86380242     0.79200
N854        N  0.30852062  0.89085541  0.84546346    -0.79100
C855        C  0.29278960  0.89757679  0.82845159     0.81700
N856        N  0.28766769  0.92446875  0.82990827    -0.79000
C857        C  0.29819048  0.94452633  0.84821222     0.81800
N858        N  0.31327413  0.93701512  0.86506383    -0.80700
C859        C  0.09212151  0.94219446  0.78675372     0.79200
N860        N  0.09048883  0.92345015  0.76913265    -0.79100
C861        C  0.06654995  0.88847728  0.76921784     0.81700
N862        N  0.04352174  0.87218952  0.78736107    -0.79000
C863        C  0.04481318  0.89061163  0.80527597     0.81800
N864        N  0.06913790  0.92559742  0.80486267    -0.80700
C865        C  0.47493307  0.82168419  0.84535017     0.79200
N866        N  0.47879459  0.83994869  0.86376759    -0.79100
C867        C  0.50490079  0.87405214  0.86414875     0.81700
N868        N  0.02422512  0.89068909  0.84395712    -0.79000
C869        C  0.02040853  0.87285018  0.82519875     0.81800
N870        N  0.49683027  0.83808273  0.82671837    -0.80700
C871        C  0.08269372  0.63508218  0.85318074     0.79200
N872        N  0.07135203  0.63942929  0.83280056    -0.79100
C873        C  0.03755833  0.62845403  0.83084669     0.81700
N874        N  0.01499159  0.61223061  0.84927163    -0.79000
C875        C  0.02594074  0.60734452  0.86954657     0.81800
N876        N  0.05968750  0.61900576  0.87121335    -0.80700
C877        C  0.47941602  0.63384902  0.79163759     0.79200
N878        N  0.50013942  0.64810272  0.77250901    -0.79100
C879        C  0.03493221  0.65527692  0.77040990     0.81700
N880        N  0.04686720  0.64973838  0.79014897    -0.79000
C881        C  0.02496651  0.63366832  0.80898326     0.81800
N882        N  0.49188366  0.62756767  0.81077148    -0.80700
O883        O  0.30917718  0.70854613  0.78189387    -0.81900
O884        O  0.30288447  0.59320455  0.84920086    -0.66600
O885        O  0.29060789  0.64080533  0.79923485    -1.13200
C886        C  0.20919257  0.63895063  0.85186766     1.05000
O887        O  0.24668227  0.55712550  0.85554372    -0.79800
O888        O  0.20005813  0.56725524  0.83698808    -0.67300
Ni889      Ni  0.32819315  0.67935494  0.78154756     1.34900
C890        C  0.19920522  0.57484799  0.81614470     0.83800
O891        O  0.32986563  0.61121643  0.80731869    -0.80300
O892        O  0.35247557  0.65541238  0.78013764    -0.90600
C893        C  0.27672871  0.56243001  0.85314359     0.83300
O894        O  0.35367382  0.70299939  0.80653958    -0.68800
O895        O  0.21239473  0.61749284  0.86488076    -0.88100
C896        C  0.35680595  0.69270733  0.82617518     0.84200
C897        C  0.35244498  0.63063995  0.79162676     1.05700
H898        H  0.28177256  0.64489894  0.85092128     0.37500
O899        O  0.26839893  0.62653516  0.84084951    -1.10700
O900        O  0.22142188  0.60404704  0.80557772    -0.67400
Ni901      Ni  0.25894363  0.64755797  0.81597844     1.26300
O902        O  0.33818886  0.66110348  0.83469222    -0.67600
O903        O  0.22661394  0.65273571  0.83305225    -0.79900
C904        C  0.27893816  0.70240040  0.78492871     0.83500
O905        O  0.25348181  0.67192269  0.79107721    -0.67100
Ni906      Ni  0.23167368  0.58936326  0.85983398     1.27400
Ni907      Ni  0.29902042  0.61853888  0.82420162     1.26100
H908        H  0.27798723  0.62308771  0.78866466     0.38100
O909        O  0.41154697  0.50408489  0.00767786    -0.81900
O910        O  0.48839851  0.96176570  0.93933951    -0.66600
O911        O  0.43313930  0.96265605  0.98732813    -1.13200
C912        C  0.04106301  0.01871290  0.02252830     1.05000
O913        O  0.50976573  0.93840702  0.96189015    -0.79800
O914        O  0.48885978  0.92664297  0.00717063    -0.67300
Ni915      Ni  0.39932388  0.47607487  0.98165144     1.34900
C916        C  0.46968164  0.92662434  0.02288942     0.83800
O917        O  0.42211847  0.93583499  0.94414626    -0.80300
O918        O  0.38320966  0.94767187  0.95574760    -0.90600
C919        C  0.50268096  0.94480954  0.94212139     0.83300
O920        O  0.43439429  0.51562007  0.96312076    -0.68800
O921        O  0.04501185  0.99699334  0.01209396    -0.88100
C922        C  0.45445317  0.51616052  0.94783592     0.84200
C923        C  0.39409825  0.93439391  0.94201402     1.05700
H924        H  0.01302247  0.00965362  0.97091352     0.37500
O925        O  0.49779523  0.98739661  0.98127421    -1.10700
O926        O  0.46264770  0.95003761  0.02361090    -0.67400
Ni927      Ni  0.47200478  0.99075696  0.00522749     1.26300
O928        O  0.46962024  0.00484164  0.94729144    -0.67600
O929        O  0.01705733  0.02388157  0.01866743    -0.79900
C930        C  0.42740693  0.50636186  0.02558464     0.83500
O931        O  0.44726331  0.49537294  0.02739365    -0.67100
Ni932      Ni  0.52359781  0.96651889  0.98821109     1.27400
Ni933      Ni  0.45999788  0.96191049  0.96271069     1.26100
H934        H  0.41944678  0.93909038  0.99453316     0.38100
O935        O  0.04341469  0.73793474  0.63326401    -0.81900
O936        O  0.16619305  0.83798182  0.69221077    -0.66600
O937        O  0.09903085  0.80169295  0.64779980    -1.13200
C938        C  0.17613450  0.78600612  0.60676863     1.05000
O939        O  0.21377381  0.86225008  0.66984379    -0.79800
O940        O  0.19092531  0.86761370  0.62836175    -0.67300
Ni941      Ni  0.05183963  0.76781203  0.65802506     1.34900
C942        C  0.17012511  0.85986849  0.61254115     0.83800
O943        O  0.10976425  0.83704507  0.68635779    -0.80300
O944        O  0.05419845  0.79457041  0.68341304    -0.90600
C945        C  0.19853542  0.85725762  0.68917647     0.83300
O946        O  0.06054723  0.73847383  0.67731708    -0.68800
O947        O  0.19870687  0.81494129  0.61454163    -0.88100
C948        C  0.08432731  0.74722256  0.69109836     0.84200
C949        C  0.07800221  0.82235569  0.69185949     1.05700
H950        H  0.15404348  0.78303409  0.66120497     0.37500
O951        O  0.15500765  0.80253680  0.65293396    -1.10700
O952        O  0.14460737  0.82859099  0.61088531    -0.67400
Ni953      Ni  0.12155700  0.78521323  0.63012324     1.26300
O954        O  0.11130439  0.77794080  0.69035660    -0.67600
O955        O  0.14463503  0.76854302  0.61361810    -0.79900
C956        C  0.05487594  0.74732910  0.61265398     0.83500
O957        O  0.08699421  0.76825404  0.60802548    -0.67100
Ni958      Ni  0.20214208  0.83671436  0.64264545     1.27400
Ni959      Ni  0.13254997  0.81986068  0.67018899     1.26100
H960        H  0.09974542  0.82105635  0.63952269     0.38100
C961        C  0.44634181  0.63188441  0.79210304    -0.07100
C962        C  0.41487416  0.59978629  0.79696362    -0.18200
C963        C  0.38320213  0.59754188  0.79555449     0.10100
C964        C  0.38314614  0.62805301  0.78888152    -0.07000
C965        C  0.41486008  0.65977981  0.78374474    -0.18300
C966        C  0.44616683  0.66217848  0.78571750     0.10100
S967        S  0.34336118  0.55548318  0.80147320    -0.33200
S968        S  0.48595946  0.70490122  0.78183535    -0.33200
H969        H  0.47161765  0.72353556  0.77324883     0.28100
H970        H  0.35805008  0.53860260  0.81236137     0.28100
H971        H  0.41514181  0.57648088  0.80145095     0.18700
H972        H  0.41531746  0.68356773  0.77963782     0.18700
C973        C  0.05771879  0.67655255  0.75029046    -0.07100
C974        C  0.04719219  0.66297302  0.72893417    -0.18200
C975        C  0.05821451  0.68500291  0.70888147     0.10100
C976        C  0.07942837  0.72179070  0.71011740    -0.07000
C977        C  0.09275761  0.73497794  0.73120062    -0.18300
C978        C  0.08230919  0.71283930  0.75116240     0.10100
S979        S  0.04337980  0.66461762  0.68244259    -0.33200
S980        S  0.09732109  0.73308629  0.77756625    -0.33200
H981        H  0.10473562  0.70838175  0.78580565     0.28100
H982        H  0.07299373  0.69034808  0.66927736     0.28100
H983        H  0.02844316  0.63513006  0.72802573     0.18700
H984        H  0.10946508  0.76306184  0.73252579     0.18700
C985        C  0.11847504  0.64325554  0.85564132    -0.07100
C986        C  0.12389059  0.62451368  0.87306939    -0.18200
C987        C  0.15501829  0.62614015  0.87431007     0.10100
C988        C  0.18150531  0.64584612  0.85710739    -0.07000
C989        C  0.17748035  0.66778236  0.84136276    -0.18300
C990        C  0.14681372  0.66720299  0.84071098     0.10100
S991        S  0.15811764  0.60108886  0.89777592    -0.33200
S992        S  0.14583100  0.69761575  0.82035700    -0.33200
H993        H  0.12501649  0.70381008  0.83448869     0.28100
H994        H  0.19224777  0.62759860  0.90188758     0.28100
H995        H  0.10323071  0.60718218  0.88551666     0.18700
H996        H  0.19772958  0.68446013  0.82857113     0.18700
C997        C  0.00197170  0.58711683  0.88961302    -0.07100
C998        C  0.01535935  0.59560204  0.91132620    -0.18200
C999        C  0.99824618  0.57293424  0.93068922     0.10100
C1000       C  0.96722689  0.54059071  0.92839840    -0.07000
C1001       C  0.45437589  0.53876813  0.90928013    -0.18300
C1002       C  0.96898786  0.55622579  0.88788380     0.10100
S1003       S  0.01892048  0.58530543  0.95733934    -0.33200
S1004       S  0.44930931  0.54890139  0.86375360    -0.33200
H1005       H  0.45145176  0.58090047  0.85975234     0.28100
H1006       H  0.98855291  0.56722810  0.97138537     0.28100
H1007       H  0.04028326  0.61942764  0.91309622     0.18700
H1008       H  0.42928291  0.51495484  0.90783154     0.18700
C1009       C  0.44522548  0.78519525  0.84504572    -0.07100
C1010       C  0.41259958  0.77794088  0.85202362    -0.18200
C1011       C  0.38265123  0.74558062  0.84866250     0.10100
C1012       C  0.38530702  0.71958924  0.83851973    -0.07000
C1013       C  0.41799622  0.72570293  0.83337567    -0.18300
C1014       C  0.44798009  0.75816714  0.83656807     0.10100
S1015       S  0.34174795  0.74033998  0.85535739    -0.33200
S1016       S  0.48866460  0.76364022  0.82883824    -0.33200
H1017       H  0.50776406  0.78845046  0.84466819     0.28100
H1018       H  0.32295724  0.70356775  0.85833041     0.28100
H1019       H  0.41021990  0.79839377  0.85875918     0.18700
H1020       H  0.42011256  0.70597526  0.82521905     0.18700
C1021       C  0.50847617  0.89337077  0.88452080    -0.07100
C1022       C  0.51724215  0.92822759  0.88155647    -0.18200
C1023       C  0.51700371  0.94633253  0.90013960     0.10100
C1024       C  0.50777563  0.92914944  0.92223431    -0.07000
C1025       C  0.50064819  0.89497833  0.92526574    -0.18300
C1026       C  0.00161747  0.87660182  0.90519366     0.10100
S1027       S  0.52938376  0.99151101  0.89545660    -0.33200
S1028       S  0.99583437  0.83410735  0.91017752    -0.33200
H1029       H  0.01769485  0.83827773  0.89164444     0.28100
H1030       H  0.53199284  0.99339829  0.87153875     0.28100
H1031       H  0.52334738  0.94094047  0.86455748     0.18700
H1032       H  0.99616366  0.88011432  0.94100837     0.18700
C1033       C  0.11927180  0.47948814  0.79260555    -0.07100
C1034       C  0.11110040  0.49886616  0.80617005    -0.18200
C1035       C  0.13666513  0.53201512  0.81247358     0.10100
C1036       C  0.17093491  0.54698741  0.80416347    -0.07000
C1037       C  0.17877351  0.52941711  0.78881358    -0.18300
C1038       C  0.15353517  0.49535561  0.78330719     0.10100
S1039       S  0.12582110  0.55416507  0.83235322    -0.33200
S1040       S  0.16679550  0.47156681  0.76681404    -0.33200
H1041       H  0.19929678  0.99493725  0.75677522     0.28100
H1042       H  0.09247924  0.52537913  0.83892392     0.28100
H1043       H  0.08484529  0.48721836  0.81285442     0.18700
H1044       H  0.20540638  0.54104171  0.78298644     0.18700
C1045       C  0.06589242  0.86946263  0.74912451    -0.07100
C1046       C  0.08276228  0.88979955  0.72872025    -0.18200
C1047       C  0.08454537  0.87463038  0.70921571     0.10100
C1048       C  0.06924856  0.83805106  0.70973889    -0.07000
C1049       C  0.05103738  0.81724078  0.72955592    -0.18300
C1050       C  0.04974876  0.83248364  0.74933560     0.10100
S1051       S  0.10718788  0.90351855  0.68418408    -0.33200
S1052       S  0.02993467  0.80332199  0.77443669    -0.33200
H1053       H  0.05795112  0.82394711  0.78791137     0.28100
H1054       H  0.08800279  0.87857226  0.66842117     0.28100
H1055       H  0.09495504  0.91802965  0.72779526     0.18700
H1056       H  0.04006506  0.78918248  0.73017892     0.18700
C1057       C  0.29199624  0.97337472  0.85045460    -0.07100
C1058       C  0.26413640  0.47584573  0.83743757    -0.18200
C1059       C  0.25953485  0.50390515  0.83831548     0.10100
C1060       C  0.28074275  0.53220269  0.85176414    -0.07000
C1061       C  0.30797621  0.53289629  0.86249071    -0.18300
C1062       C  0.31354078  0.50545722  0.86087964     0.10100
S1063       S  0.22785939  0.50323618  0.82047510    -0.33200
S1064       S  0.35139839  0.51004483  0.87305903    -0.33200
H1065       H  0.37335021  0.05129759  0.86986669     0.28100
H1066       H  0.24841060  0.53915577  0.81327064     0.28100
H1067       H  0.24182249  0.94355872  0.83676252     0.18700
H1068       H  0.32510163  0.55519199  0.87202571     0.18700
C1069       C  0.33575512  0.90439004  0.88249176    -0.07100
C1070       C  0.37157920  0.92103894  0.88033118    -0.18200
C1071       C  0.39100067  0.92779213  0.89957487     0.10100
C1072       C  0.37436281  0.91884730  0.92161522    -0.07000
C1073       C  0.33817060  0.89933449  0.92354907    -0.18300
C1074       C  0.31877705  0.89127578  0.90416271     0.10100
S1075       S  0.41909404  0.42480303  0.89704243    -0.33200
S1076       S  0.27242723  0.86625345  0.90797431    -0.33200
H1077       H  0.26617530  0.85360150  0.88610814     0.28100
H1078       H  0.41659773  0.39874552  0.91247893     0.28100
H1079       H  0.38474993  0.93132693  0.86369131     0.18700
H1080       H  0.32498637  0.89153446  0.94023447     0.18700
C1081       C  0.27476826  0.73255786  0.78506550    -0.07100
C1082       C  0.26465267  0.73906730  0.80587916    -0.18200
C1083       C  0.26329671  0.76891024  0.80829883     0.10100
C1084       C  0.27316997  0.79376998  0.78958884    -0.07000
C1085       C  0.28352154  0.78726425  0.76874756    -0.18300
C1086       C  0.28456740  0.75721070  0.76632332     0.10100
S1087       S  0.24785167  0.77299966  0.83549778    -0.33200
S1088       S  0.29887660  0.75205808  0.73899394    -0.33200
H1089       H  0.28024286  0.71517397  0.74105647     0.28100
H1090       H  0.22772056  0.78492934  0.82627342     0.28100
H1091       H  0.25843346  0.72104038  0.82061365     0.18700
H1092       H  0.29119275  0.80595917  0.75417144     0.18700
C1093       C  0.21951672  0.87175727  0.70927715    -0.07100
C1094       C  0.25174521  0.87541972  0.70902941    -0.18200
C1095       C  0.26809379  0.87767784  0.72914473     0.10100
C1096       C  0.25221639  0.87657984  0.75014656    -0.07000
C1097       C  0.22239490  0.87765775  0.75023022    -0.18300
C1098       C  0.20601685  0.87560241  0.72996416     0.10100
S1099       S  0.30767755  0.87857473  0.72707471    -0.33200
S1100       S  0.16732374  0.87638630  0.73185139    -0.33200
H1101       H  0.17185128  0.89198440  0.70973394     0.28100
H1102       H  0.32061484  0.89498258  0.74739090     0.28100
H1103       H  0.26300469  0.87343700  0.69334372     0.18700
H1104       H  0.21041539  0.87747139  0.76626753     0.18700
C1105       C  0.47334132  0.57972227  0.44344463    -0.07100
C1106       C  0.49491433  0.60751893  0.45684880    -0.18200
C1107       C  0.49247503  0.63677269  0.45826962     0.10100
C1108       C  0.46744137  0.63885612  0.44609748    -0.07000
C1109       C  0.44790789  0.61271052  0.43101245    -0.18300
C1110       C  0.45045841  0.58329367  0.42950825     0.10100
S1111       S  0.01799797  0.67120064  0.47904167    -0.33200
S1112       S  0.42163589  0.54942322  0.41140962    -0.33200
H1113       H  0.41195975  0.56959877  0.39870024     0.28100
H1114       H  0.02128322  0.69865839  0.46463088     0.28100
H1115       H  0.01275493  0.60858809  0.46981670     0.18700
H1116       H  0.42887166  0.61409361  0.42135045     0.18700
C1117       C  0.45341670  0.79213772  0.51837702    -0.07100
C1118       C  0.42275294  0.78885606  0.51154224    -0.18200
C1119       C  0.41827897  0.81725965  0.51220656     0.10100
C1120       C  0.44523394  0.84966589  0.51948639    -0.07000
C1121       C  0.47492812  0.85205057  0.52736125    -0.18300
C1122       C  0.47954143  0.82408398  0.52666623     0.10100
S1123       S  0.87492538  0.81196459  0.49762339    -0.33200
S1124       S  0.52084937  0.83137714  0.53388735    -0.33200
H1125       H  0.53347896  0.86324986  0.54405559     0.28100
H1126       H  0.85919116  0.77730782  0.49119554     0.28100
H1127       H  0.40249921  0.76415830  0.50557592     0.18700
H1128       H  0.49603904  0.87703806  0.53237177     0.18700
C1129       C  0.49780555  0.72487306  0.55188773    -0.07100
C1130       C  0.48070339  0.71749351  0.57329901    -0.18200
C1131       C  0.99581585  0.72461058  0.59646650     0.10100
C1132       C  0.03052307  0.73403565  0.59365949    -0.07000
C1133       C  0.04328772  0.73465217  0.57159252    -0.18300
C1134       C  0.02336548  0.72867487  0.55239212     0.10100
S1135       S  0.97669522  0.72296449  0.62397202    -0.33200
S1136       S  0.04236634  0.73316973  0.52438409    -0.33200
H1137       H  0.07403970  0.73920243  0.53138975     0.28100
H1138       H  0.94329625  0.71107490  0.61702558     0.28100
H1139       H  0.45424613  0.71059409  0.57402633     0.18700
H1140       H  0.06958798  0.74143786  0.56925666     0.18700
C1141       C  0.37110748  0.86195533  0.45271446    -0.07100
C1142       C  0.37076085  0.83322391  0.44462924    -0.18200
C1143       C  0.34087667  0.79912625  0.44754835     0.10100
C1144       C  0.31072671  0.79382911  0.45869180    -0.07000
C1145       C  0.31188122  0.82229559  0.46774569    -0.18300
C1146       C  0.34162365  0.85588114  0.46523656     0.10100
S1147       S  0.34197119  0.76255448  0.43778505    -0.33200
S1148       S  0.34044660  0.88953064  0.47935671    -0.33200
H1149       H  0.37392980  0.90478664  0.48724729     0.28100
H1150       H  0.37638871  0.78200833  0.42902795     0.28100
H1151       H  0.39369977  0.83762917  0.43580273     0.18700
H1152       H  0.28918291  0.81851074  0.47659487     0.18700
C1153       C  0.04173206  0.57198565  0.52225743    -0.07100
C1154       C  0.05277109  0.59258076  0.50153667    -0.18200
C1155       C  0.08491903  0.62431461  0.49873679     0.10100
C1156       C  0.10764709  0.63477144  0.51662931    -0.07000
C1157       C  0.09616261  0.61450902  0.53755729    -0.18300
C1158       C  0.06349512  0.58365950  0.54063312     0.10100
S1159       S  0.09498845  0.65047222  0.47229775    -0.33200
S1160       S  0.05153850  0.55984863  0.56819053    -0.33200
H1161       H  0.01567485  0.54141516  0.56597365     0.28100
H1162       H  0.11184371  0.68283500  0.48234529     0.28100
H1163       H  0.03702298  0.58295172  0.48705433     0.18700
H1164       H  0.11298418  0.62248413  0.55165322     0.18700
C1165       C  0.18645515  0.77147284  0.58910663    -0.07100
C1166       C  0.17658019  0.73653974  0.59303718    -0.18200
C1167       C  0.18005511  0.71862404  0.57587462     0.10100
C1168       C  0.19319604  0.73584420  0.55400557    -0.07000
C1169       C  0.20658186  0.77192448  0.55072216    -0.18300
C1170       C  0.20290598  0.78991235  0.56802229     0.10100
S1171       S  0.16524720  0.67321225  0.58272914    -0.33200
S1172       S  0.21612175  0.83485885  0.56127393    -0.33200
H1173       H  0.18769019  0.83206875  0.57273756     0.28100
H1174       H  0.18594824  0.67155472  0.56568619     0.28100
H1175       H  0.16480685  0.72266274  0.60943416     0.18700
H1176       H  0.21658357  0.78524651  0.53397973     0.18700
C1177       C  0.11557416  0.95856116  0.46636585    -0.07100
C1178       C  0.10692890  0.98106067  0.45548422    -0.18200
C1179       C  0.07495259  0.97730236  0.46006549     0.10100
C1180       C  0.04992646  0.94935765  0.47510235    -0.07000
C1181       C  0.05812161  0.92625748  0.48542989    -0.18300
C1182       C  0.09022617  0.93030651  0.48117258     0.10100
S1183       S  0.06882390  0.01057657  0.44755713    -0.33200
S1184       S  0.09681583  0.89812375  0.49497614    -0.33200
H1185       H  0.11621194  0.89744018  0.47655723     0.28100
H1186       H  0.04931459  0.01081380  0.46606967     0.28100
H1187       H  0.12598831  0.00302131  0.44421104     0.18700
H1188       H  0.03938050  0.90502492  0.49728989     0.18700
C1189       C  0.37034480  0.98493989  0.49194044    -0.07100
C1190       C  0.35754116  0.50063841  0.47389552    -0.18200
C1191       C  0.32702558  0.49911958  0.47919524     0.10100
C1192       C  0.30803399  0.98111207  0.50277238    -0.07000
C1193       C  0.31773397  0.96100440  0.51571053    -0.18300
C1194       C  0.34883138  0.96327092  0.51084907     0.10100
S1195       S  0.31904945  0.52813315  0.46238833    -0.33200
S1196       S  0.35826555  0.93605006  0.52835378    -0.33200
H1197       H  0.39220912  0.96334040  0.53190452     0.28100
H1198       H  0.30627771  0.53681268  0.48104668     0.28100
H1199       H  0.37355711  0.51693618  0.45910050     0.18700
H1200       H  0.30059060  0.94262772  0.52944539     0.18700
C1201       C  0.17852301  0.88753679  0.59409545    -0.07100
C1202       C  0.21031217  0.91988779  0.59446669    -0.18200
C1203       C  0.22441808  0.94352664  0.57530533     0.10100
C1204       C  0.20675702  0.93484126  0.55497696    -0.07000
C1205       C  0.17327027  0.90483569  0.55528173    -0.18300
C1206       C  0.15874210  0.88112589  0.57458171     0.10100
S1207       S  0.26555578  0.98385737  0.57771717    -0.33200
S1208       S  0.11581131  0.84241450  0.57317428    -0.33200
H1209       H  0.10849614  0.85109870  0.55169270     0.28100
H1210       H  0.25988530  0.00366686  0.56135059     0.28100
H1211       H  0.22540136  0.92625539  0.60941739     0.18700
H1212       H  0.15942279  0.89862814  0.53979351     0.18700
C1213       C  0.37795974  0.69667785  0.37938824    -0.07100
C1214       C  0.36030627  0.68054313  0.40060384    -0.18200
C1215       C  0.37820389  0.68279018  0.42012205     0.10100
C1216       C  0.41445963  0.70165530  0.41854005    -0.07000
C1217       C  0.43215443  0.72118766  0.39822522    -0.18300
C1218       C  0.41429134  0.71985392  0.37888190     0.10100
S1219       S  0.35457551  0.65836814  0.44630440    -0.33200
S1220       S  0.43934530  0.74814464  0.35423400    -0.33200
H1221       H  0.41355180  0.75366810  0.34706693     0.28100
H1222       H  0.32202846  0.65031343  0.43967997     0.28100
H1223       H  0.33244859  0.66367265  0.40160790     0.18700
H1224       H  0.46010648  0.73671607  0.39722454     0.18700
C1225       C  0.23101216  0.66192867  0.38006216    -0.07100
C1226       C  0.23960884  0.69667293  0.37813398    -0.18200
C1227       C  0.23755909  0.71278378  0.39707003     0.10100
C1228       C  0.22704158  0.69390663  0.41859307    -0.07000
C1229       C  0.21539984  0.65819499  0.42020089    -0.18300
C1230       C  0.21782647  0.64215093  0.40120334     0.10100
S1231       S  0.25050013  0.75810224  0.39286271    -0.33200
S1232       S  0.20842182  0.59820289  0.40567616    -0.33200
H1233       H  0.24074989  0.60737438  0.39637677     0.28100
H1234       H  0.23014098  0.75699043  0.41135345     0.28100
H1235       H  0.24930288  0.71182172  0.36189234     0.18700
H1236       H  0.20774399  0.64373524  0.43670801     0.18700
C1237       C  0.23672058  0.54638573  0.37212961    -0.07100
C1238       C  0.20311940  0.51625685  0.37347729    -0.18200
C1239       C  0.20057501  0.99176307  0.39441504     0.10100
C1240       C  0.21797520  0.00310704  0.41471292    -0.07000
C1241       C  0.24494236  0.52872117  0.41005058    -0.18300
C1242       C  0.25857095  0.55106403  0.39017258     0.10100
S1243       S  0.16081173  0.94972554  0.39308648    -0.33200
S1244       S  0.30356370  0.58559463  0.38954251    -0.33200
H1245       H  0.30937988  0.58330927  0.36641476     0.28100
H1246       H  0.16752503  0.93290916  0.41104990     0.28100
H1247       H  0.18615582  0.51127748  0.35967819     0.18700
H1248       H  0.26118752  0.53423848  0.42435449     0.18700
C1249       C  0.31464010  0.81165122  0.12108769    -0.07100
C1250       C  0.31055723  0.83262772  0.10462691    -0.18200
C1251       C  0.27919021  0.83023699  0.10239447     0.10100
C1252       C  0.25082170  0.80756993  0.11783374    -0.07000
C1253       C  0.25463261  0.78565861  0.13376006    -0.18300
C1254       C  0.28554013  0.78672305  0.13511765     0.10100
S1255       S  0.27799406  0.85778123  0.07976211    -0.33200
S1256       S  0.28563029  0.75499511  0.15474384    -0.33200
H1257       H  0.30514089  0.74807910  0.13986658     0.28100
H1258       H  0.24478704  0.83175310  0.07361574     0.28100
H1259       H  0.33221308  0.85157155  0.09331036     0.18700
H1260       H  0.23379659  0.76815578  0.14593410     0.18700
C1261       C  0.45743855  0.90082217  0.04272810    -0.07100
C1262       C  0.47073214  0.91375457  0.06379488    -0.18200
C1263       C  0.45594442  0.89306617  0.08419105     0.10100
C1264       C  0.42696431  0.85847707  0.08368530    -0.07000
C1265       C  0.41518190  0.84473860  0.06242564    -0.18300
C1266       C  0.43042414  0.86549830  0.04190864     0.10100
S1267       S  0.47323483  0.91349423  0.11028764    -0.33200
S1268       S  0.41387487  0.84773522  0.01497967    -0.33200
H1269       H  0.38935784  0.81330402  0.02380008     0.28100
H1270       H  0.44103661  0.90264633  0.12077420     0.28100
H1271       H  0.49170033  0.94094609  0.06444532     0.18700
H1272       H  0.39282045  0.81827055  0.06200948     0.18700
C1273       C  0.04629785  0.82011452  0.18749756    -0.07100
C1274       C  0.04283096  0.84306230  0.17230896    -0.18200
C1275       C  0.51499715  0.84333054  0.17295700     0.10100
C1276       C  0.48563235  0.81749381  0.18644063    -0.07000
C1277       C  0.48906292  0.79448752  0.20149996    -0.18300
C1278       C  0.01976785  0.79993788  0.20458986     0.10100
S1279       S  0.51537353  0.87642061  0.15446855    -0.33200
S1280       S  0.02290960  0.77267612  0.22666767    -0.33200
H1281       H  0.98879533  0.75523854  0.23586126     0.28100
H1282       H  0.49501134  0.88181642  0.16961221     0.28100
H1283       H  0.06338978  0.86016308  0.15972716     0.18700
H1284       H  0.46713285  0.77503312  0.21237037     0.18700
C1285       C  0.37035884  0.76047191  0.22102562    -0.07100
C1286       C  0.37929773  0.77280330  0.24282450    -0.18200
C1287       C  0.36656876  0.74984220  0.26248499     0.10100
C1288       C  0.34441435  0.71325130  0.26049625    -0.01000
C1289       C  0.33333377  0.70133195  0.23876907    -0.18300
C1290       C  0.34615490  0.72433306  0.21914496     0.10100
S1291       S  0.38098825  0.76895417  0.28934452    -0.33200
S1292       S  0.33492044  0.70517032  0.19210715    -0.33200
H1293       H  0.32935148  0.73046071  0.18230202     0.28100
H1294       H  0.34987277  0.74464070  0.30168363     0.28100
H1295       H  0.39816295  0.80044296  0.24444839     0.18700
H1296       H  0.31654484  0.67344372  0.23674706     0.18700
C1297       C  0.30276746  0.96431410  0.17893361    -0.07100
C1298       C  0.31031403  0.94253495  0.16767896    -0.18200
C1299       C  0.28425283  0.90817805  0.16355447     0.10100
C1300       C  0.24986180  0.89514234  0.17081941    -0.07000
C1301       C  0.24269350  0.91568051  0.18381944    -0.18300
C1302       C  0.26871906  0.95023879  0.18794083     0.10100
S1303       S  0.29447461  0.88218651  0.14706808    -0.33200
S1304       S  0.25699125  0.97709209  0.20212516    -0.33200
H1305       H  0.22166083  0.95134306  0.20606758     0.28100
H1306       H  0.33002092  0.90729521  0.14340356     0.28100
H1307       H  0.33647061  0.95306857  0.16119794     0.18700
H1308       H  0.21607813  0.90581049  0.18874233     0.18700
C1309       C  0.36079617  0.56594740  0.22179602    -0.07100
C1310       C  0.34181109  0.54445505  0.24145248    -0.18200
C1311       C  0.33519914  0.55795592  0.26021252     0.10100
C1312       C  0.34787255  0.59403283  0.25974400    -0.07000
C1313       C  0.36837757  0.61607272  0.24086513    -0.18300
C1314       C  0.37485476  0.60262230  0.22181080     0.10100
S1315       S  0.32780506  0.03835558  0.28528542    -0.33200
S1316       S  0.39956936  0.63285901  0.19765585    -0.33200
H1317       H  0.40129404  0.66257751  0.20540540     0.28100
H1318       H  0.32695198  0.55200739  0.30080326     0.28100
H1319       H  0.33904714  0.02480462  0.24083772     0.18700
H1320       H  0.37806538  0.64379592  0.24070177     0.18700
C1321       C  0.47929622  0.65895259  0.12562637    -0.07100
C1322       C  0.51205900  0.66697572  0.11821402    -0.18200
C1323       C  0.03831132  0.69686206  0.12301894     0.10100
C1324       C  0.03576968  0.72315853  0.13287071    -0.07000
C1325       C  0.00311597  0.71785004  0.13684234    -0.18300
C1326       C  0.47623587  0.68500890  0.13530989     0.10100
S1327       S  0.07868052  0.69968449  0.11911822    -0.33200
S1328       S  0.43517974  0.67872754  0.14304284    -0.33200
H1329       H  0.41676062  0.65512893  0.12642759     0.28100
H1330       H  0.10000825  0.73646300  0.11742422     0.28100
H1331       H  0.51459600  0.64713832  0.11061909     0.18700
H1332       H  0.00099707  0.73760028  0.14495423     0.18700
C1333       C  0.41929056  0.55239059  0.08511961    -0.07100
C1334       C  0.41701622  0.56567409  0.06365662    -0.18200
C1335       C  0.41921915  0.55117476  0.04379244     0.10100
C1336       C  0.42298857  0.52220667  0.04550153    -0.07000
C1337       C  0.42478679  0.50880313  0.06708684    -0.18300
C1338       C  0.42357516  0.52390126  0.08682587     0.10100
S1339       S  0.41961818  0.57241217  0.01697662    -0.33200
S1340       S  0.43022164  0.50822353  0.11383141    -0.33200
H1341       H  0.44341925  0.48930540  0.10489174     0.28100
H1342       H  0.44695535  0.57149218  0.00682683     0.28100
H1343       H  0.41468973  0.58823936  0.06234581     0.18700
H1344       H  0.42780853  0.48669868  0.06848764     0.18700
C1345       C  0.14605814  0.64469157  0.17494857    -0.07100
C1346       C  0.12578847  0.64529031  0.19278901    -0.18200
C1347       C  0.12446373  0.67499546  0.19587590     0.10100
C1348       C  0.14370034  0.70514664  0.18069650    -0.07000
C1349       C  0.16360862  0.70427979  0.16269710    -0.18300
C1350       C  0.16562042  0.67488958  0.15992040     0.10100
S1351       S  0.09818875  0.67276628  0.21972975    -0.33200
S1352       S  0.19442629  0.67818938  0.13739825    -0.33200
H1353       H  0.20451483  0.65761052  0.14909791     0.28100
H1354       H  0.11930687  0.70844662  0.22395468     0.28100
H1355       H  0.11106428  0.62241616  0.20463729     0.18700
H1356       H  0.17720868  0.72645261  0.15036654     0.18700
C1357       C  0.19888209  0.56748848  0.25643366    -0.07100
C1358       C  0.16645485  0.56351810  0.25643402    -0.18200
C1359       C  0.15014929  0.56094309  0.23621097     0.10100
C1360       C  0.16631714  0.56222647  0.21530358    -0.07000
C1361       C  0.19639241  0.56165512  0.21541093    -0.18300
C1362       C  0.21293125  0.56424761  0.23575614     0.10100
S1363       S  0.11049574  0.05272303  0.24407192    -0.33200
S1364       S  0.25233204  0.56451004  0.23475011    -0.33200
H1365       H  0.25463766  0.56241416  0.21112507     0.28100
H1366       H  0.09768719  0.03752460  0.22340087     0.28100
H1367       H  0.15468772  0.56492662  0.27207273     0.18700
H1368       H  0.20837441  0.56206202  0.19933718     0.18700
C1369       C  0.12822273  0.96551501  0.11927444    -0.07100
C1370       C  0.15382521  0.96544978  0.13173632    -0.18200
C1371       C  0.15919624  0.93793288  0.13121517     0.10100
C1372       C  0.13886946  0.90948151  0.11764027    -0.07000
C1373       C  0.11278124  0.90896592  0.10548178    -0.18300
C1374       C  0.10732487  0.93666516  0.10593932     0.10100
S1375       S  0.19153869  0.94016063  0.14917020    -0.33200
S1376       S  0.07253697  0.93357159  0.09018273    -0.33200
H1377       H  0.06487602  0.90425314  0.07829056     0.28100
H1378       H  0.17243728  0.90419685  0.15627958     0.28100
H1379       H  0.16992561  0.98709934  0.14206357     0.18700
H1380       H  0.09674984  0.88679520  0.09555139     0.18700
C1381       C  0.09685058  0.04245748  0.08240030    -0.07100
C1382       C  0.11097061  0.54562163  0.05747329    -0.18200
C1383       C  0.09251052  0.54153529  0.03801185     0.10100
C1384       C  0.06325370  0.03554385  0.04166757    -0.07000
C1385       C  0.04700587  0.03314473  0.06270466    -0.18300
C1386       C  0.06322357  0.03584657  0.08308103     0.10100
S1387       S  0.11471728  0.55071369  0.01058880    -0.33200
S1388       S  0.03803590  0.02559134  0.10934146    -0.33200
H1389       H  0.04492848  0.00053986  0.11786224     0.28100
H1390       H  0.09322565  0.55897963  0.99904924     0.28100
H1391       H  0.13726981  0.55215674  0.05558970     0.18700
H1392       H  0.02015049  0.02503034  0.06351810     0.18700
C1393       C  0.61107498  0.52972441  0.09952910     0.79200
N1394       N  0.61429708  0.50164687  0.10026397    -0.79100
C1395       C  0.62718121  0.49397915  0.11852014     0.81700
N1396       N  0.63759993  0.51533113  0.13606554    -0.79000
C1397       C  0.62998788  0.04316173  0.14208598     0.81800
N1398       N  0.61812270  0.05239712  0.12378188    -0.80700
C1399       C  0.65746739  0.06997528  0.20031320     0.79200
N1400       N  0.64915265  0.05211645  0.18120362    -0.79100
C1401       C  0.63972977  0.06350570  0.16261172     0.81700
N1402       N  0.63962599  0.09358044  0.16316306    -0.79000
C1403       C  0.64870109  0.11190360  0.18226358     0.81800
N1404       N  0.65717160  0.09961443  0.20067775    -0.80700
C1405       C  0.94905243  0.12554325  0.12398331     0.79200
N1406       N  0.94533076  0.10801369  0.10524758    -0.79100
C1407       C  0.92054517  0.07351289  0.10487388     0.81700
N1408       N  0.89912574  0.05626513  0.12356726    -0.79000
C1409       C  0.90267154  0.07335004  0.14263688     0.81800
N1410       N  0.92789628  0.10804313  0.14286381    -0.80700
C1411       C  0.83128300  0.49991297  0.18055510     0.79200
N1412       N  0.85265892  0.51752700  0.16186485    -0.79100
C1413       C  0.88034944  0.05364161  0.16315080     0.81700
N1414       N  0.88477120  0.06955770  0.18287377    -0.79000
C1415       C  0.86454715  0.05120679  0.20189007     0.81800
N1416       N  0.83379253  0.51774276  0.19886841    -0.80700
C1417       C  0.95228109  0.31440039  0.18589058     0.79200
N1418       N  0.93930244  0.31958074  0.16656800    -0.79100
C1419       C  0.90503978  0.30738373  0.16575182     0.81700
N1420       N  0.88339500  0.28870701  0.18424535    -0.79000
C1421       C  0.89607502  0.28298161  0.20348773     0.81800
N1422       N  0.93025049  0.29606873  0.20409894    -0.80700
C1423       C  0.84498403  0.30701240  0.12377146     0.79200
N1424       N  0.85747786  0.30223403  0.14353351    -0.79100
C1425       C  0.89139075  0.31301306  0.14450635     0.81700
N1426       N  0.91304538  0.32965288  0.12575620    -0.79000
C1427       C  0.90085345  0.33478046  0.10613787     0.81800
N1428       N  0.86710917  0.32334753  0.10532588    -0.80700
O1429       O  0.67687879  0.38291454  0.11637708    -0.81900
O1430       O  0.67048910  0.26778753  0.18280394    -0.66600
O1431       O  0.65616593  0.31394583  0.13294353    -1.13200
C1432       C  0.57167173  0.30876283  0.18178842     1.05000
O1433       O  0.61475608  0.23007267  0.19084696    -0.79800
O1434       O  0.57285593  0.23597290  0.16361225    -0.67300
Ni1435     Ni  0.69402752  0.35196089  0.11469580     1.34900
C1436       C  0.56853251  0.24854009  0.14529071     0.83800
O1437       O  0.69674096  0.28623510  0.14133947    -0.80300
O1438       O  0.71680754  0.32645188  0.11191294    -0.90600
C1439       C  0.64538909  0.23702886  0.18857770     0.83300
O1440       O  0.72209274  0.37508547  0.13881840    -0.68800
O1441       O  0.56881687  0.28088540  0.19062267    -0.88100
C1442       C  0.72373022  0.36596062  0.15915452     0.84200
C1443       C  0.71748634  0.30281890  0.12430142     1.05700
H1444       H  0.64536054  0.31527667  0.18590954     0.37500
O1445       O  0.63334728  0.29859003  0.17462801    -1.10700
O1446       O  0.58599130  0.28105457  0.13889220    -0.67400
Ni1447     Ni  0.62587308  0.32218415  0.14998913     1.26300
O1448       O  0.70297272  0.33542744  0.16875970    -0.67600
O1449       O  0.59623461  0.33014695  0.16770539    -0.79900
C1450       C  0.64695685  0.37767211  0.11949631     0.83500
O1451       O  0.62125347  0.34746403  0.12536545    -0.67100
Ni1452     Ni  0.59438553  0.25809024  0.19015520     1.27400
Ni1453     Ni  0.66506470  0.29221699  0.15797323     1.26100
H1454       H  0.64279895  0.29593313  0.12266174     0.38100
O1455       O  0.71061871  0.07087279  0.29917323    -0.81900
O1456       O  0.83200450  0.16698468  0.36228789    -0.66600
O1457       O  0.76781556  0.13004119  0.31612584    -1.13200
C1458       C  0.84675480  0.11053180  0.28018354     1.05000
O1459       O  0.88048702  0.19094141  0.34086527    -0.79800
O1460       O  0.86255415  0.19451631  0.29704919    -0.67300
Ni1461     Ni  0.72099847  0.09550370  0.32656970     1.34900
C1462       C  0.84117367  0.18623345  0.28152740     0.83800
O1463       O  0.77550030  0.16592051  0.35391255    -0.80300
O1464       O  0.72346418  0.11664684  0.35497864    -0.90600
C1465       C  0.86453411  0.18594391  0.35991251     0.83300
O1466       O  0.73360237  0.06548485  0.34059006    -0.68800
O1467       O  0.86920758  0.13946684  0.28804973    -0.88100
C1468       C  0.75307231  0.07397622  0.35723072     0.84200
C1469       C  0.74469798  0.14672974  0.36200881     1.05700
H1470       H  0.82159304  0.11136093  0.33282899     0.37500
O1471       O  0.82321084  0.13068011  0.32391996    -1.10700
O1472       O  0.81517404  0.15500689  0.28043020    -0.67400
Ni1473     Ni  0.79135224  0.11246140  0.30042995     1.26300
O1474       O  0.77652716  0.10592803  0.35967620    -0.67600
O1475       O  0.81488545  0.09438862  0.28585249    -0.79900
C1476       C  0.72633609  0.07664067  0.27991607     0.83500
O1477       O  0.75890359  0.09470350  0.27744109    -0.67100
Ni1478     Ni  0.87097556  0.16361659  0.31465298     1.27400
Ni1479     Ni  0.79971211  0.14847720  0.33943520     1.26100
H1480       H  0.76855964  0.14891729  0.30716545     0.38100
C1481       C  0.76917296  0.46942001  0.50448442     0.79200
N1482       N  0.75383408  0.97700009  0.49178681    -0.79100
C1483       C  0.71791996  0.46380739  0.49211143     0.81700
N1484       N  0.70339453  0.45218465  0.51357883    -0.79000
C1485       C  0.72151161  0.44931319  0.53053360     0.81800
N1486       N  0.75407339  0.45757648  0.52573145    -0.80700
C1487       C  0.64635229  0.46081234  0.46198214     0.79200
N1488       N  0.66500917  0.45799558  0.47861105    -0.79100
C1489       C  0.69781535  0.46661037  0.47384590     0.81700
N1490       N  0.71212691  0.47865822  0.45232931    -0.79000
C1491       C  0.69354516  0.48137631  0.43558237     0.81800
N1492       N  0.66099760  0.47283784  0.44067494    -0.80700
C1493       C  0.68384989  0.21676625  0.53248402     0.79200
N1494       N  0.65317229  0.18581762  0.53260571    -0.79100
C1495       C  0.64449428  0.16546611  0.51479504     0.81700
N1496       N  0.66728200  0.17614691  0.49659179    -0.79000
C1497       C  0.69821695  0.20735190  0.49613491     0.81800
N1498       N  0.70631829  0.22788371  0.51407046    -0.80700
C1499       C  0.73623567  0.21154559  0.43909752     0.79200
N1500       N  0.71375828  0.19990695  0.45756835    -0.79100
C1501       C  0.72265352  0.21901868  0.47624905     0.81700
N1502       N  0.75417653  0.24939504  0.47636146    -0.79000
C1503       C  0.77703567  0.26040691  0.45818081     0.81800
N1504       N  0.76773423  0.24150737  0.43966396    -0.80700
C1505       C  0.98527575  0.23390049  0.53316407     0.79200
N1506       N  0.97804255  0.25899512  0.53482483    -0.79100
C1507       C  0.96641152  0.26886433  0.51694363     0.81700
N1508       N  0.96114312  0.25269362  0.49727521    -0.79000
C1509       C  0.96805771  0.22724289  0.49539702     0.81800
N1510       N  0.98042498  0.21803074  0.51336827    -0.80700
C1511       C  0.94022423  0.20140432  0.43740264     0.79200
N1512       N  0.94927358  0.17794812  0.43445739    -0.79100
C1513       C  0.96468211  0.17011551  0.45097948     0.81700
N1514       N  0.97072781  0.18604461  0.47091682    -0.79000
C1515       C  0.96202071  0.21001976  0.47392444     0.81800
N1516       N  0.94648565  0.21737814  0.45715577    -0.80700
O1517       O  0.89831984  0.42379361  0.44537981    -0.81900
O1518       O  0.48628862  0.02787754  0.51324249    -0.66600
O1519       O  0.95950985  0.47354493  0.46394544    -1.13200
C1520       C  0.94979659  0.38590391  0.51690283     1.05000
O1521       O  0.51874771  0.00837217  0.52524449    -0.79800
O1522       O  0.51638566  0.45252326  0.50690713    -0.67300
Ni1523     Ni  0.93068121  0.47387186  0.44144147     1.34900
C1524       C  0.51756182  0.44720561  0.48607956     0.83800
O1525       O  0.98058396  0.04062783  0.46774426    -0.80300
O1526       O  0.95180289  0.02113302  0.43592799    -0.90600
C1527       C  0.51413025  0.03324197  0.52092176     0.83300
O1528       O  0.90081069  0.47951507  0.46092487    -0.68800
O1529       O  0.96763035  0.41057900  0.52996507    -0.88100
C1530       C  0.89914094  0.48341596  0.48201163     0.84200
C1531       C  0.96905531  0.04543884  0.44932434     1.05700
H1532       H  0.93846862  0.45066118  0.51532021     0.37500
O1533       O  0.95962261  0.45953732  0.50630581    -1.10700
O1534       O  0.99332087  0.44059076  0.47449417    -0.67400
Ni1535     Ni  0.94751926  0.43125385  0.48126847     1.26300
O1536       O  0.92470519  0.99044317  0.49288819    -0.67600
O1537       O  0.93699126  0.38990969  0.49893083    -0.79900
C1538       C  0.90207170  0.39836142  0.45008196     0.83500
O1539       O  0.93090951  0.40385350  0.45576845    -0.67100
Ni1540     Ni  0.48520195  0.45630039  0.52613920     1.27400
Ni1541     Ni  0.97002527  0.99899239  0.48527474     1.26100
H1542       H  0.98126137  0.48224387  0.45581351     0.38100
C1543       C  0.76502762  0.36722641  0.76942028     0.79200
N1544       N  0.76539920  0.33757228  0.76959765    -0.79100
C1545       C  0.77237574  0.32498532  0.78857321     0.81700
N1546       N  0.77977344  0.34286964  0.80775730    -0.79000
C1547       C  0.77957040  0.37288477  0.80791233     0.81800
N1548       N  0.77169482  0.38474072  0.78869627    -0.80700
C1549       C  0.80738983  0.40107919  0.86615408     0.79200
N1550       N  0.79978111  0.38301125  0.84707485    -0.79100
C1551       C  0.78836166  0.39274380  0.82868651     0.81700
N1552       N  0.78577908  0.42135174  0.82939527    -0.79000
C1553       C  0.79412658  0.43992420  0.84834662     0.81800
N1554       N  0.80425450  0.42903951  0.86656285    -0.80700
C1555       C  0.58985744  0.43689071  0.79193971     0.79200
N1556       N  0.58713390  0.42011763  0.77297333    -0.79100
C1557       C  0.56273117  0.38543321  0.77207415     0.81700
N1558       N  0.54026440  0.36749562  0.79028112    -0.79000
C1559       C  0.54268886  0.38414034  0.80935980     0.81800
N1560       N  0.56752930  0.41866969  0.81008507    -0.80700
C1561       C  0.97289894  0.31836129  0.84535035     0.79200
N1562       N  0.97794433  0.33547805  0.86450847    -0.79100
C1563       C  0.00446305  0.36932817  0.86525962     0.81700
N1564       N  0.52465199  0.38191965  0.84890102    -0.79000
C1565       C  0.51970981  0.36504842  0.82957286     0.81800
N1566       N  0.99420622  0.33558348  0.82650294    -0.80700
C1567       C  0.57975262  0.13406416  0.84927969     0.79200
N1568       N  0.56768075  0.13942143  0.82960239    -0.79100
C1569       C  0.53475403  0.13158545  0.82884278     0.81700
N1570       N  0.51335172  0.11730088  0.84786228    -0.79000
C1571       C  0.52491131  0.11129560  0.86752693     0.81800
N1572       N  0.55798727  0.11990267  0.86804797    -0.80700
C1573       C  0.97765112  0.13418792  0.78468326     0.79200
N1574       N  0.99993009  0.14976184  0.76640181    -0.79100
C1575       C  0.53400025  0.16217259  0.76948328     0.81700
N1576       N  0.54495222  0.15505566  0.78902350    -0.79000
C1577       C  0.52251386  0.13861936  0.80750726     0.81800
N1578       N  0.98859065  0.12720805  0.80432897    -0.80700
O1579       O  0.80970825  0.20793350  0.78248406    -0.81900
O1580       O  0.80106536  0.08767489  0.84658618    -0.66600
O1581       O  0.78948641  0.13847457  0.79800473    -1.13200
C1582       C  0.70464548  0.13288499  0.84762165     1.05000
O1583       O  0.74504293  0.05214489  0.85480771    -0.79800
O1584       O  0.70213522  0.06087430  0.83059341    -0.67300
Ni1585     Ni  0.82702880  0.17737503  0.78052261     1.34900
C1586       C  0.70106811  0.07236327  0.81083287     0.83800
O1587       O  0.82869617  0.10878489  0.80499475    -0.80300
O1588       O  0.84902247  0.15174432  0.77711436    -0.90600
C1589       C  0.77489970  0.05715243  0.85186288     0.83300
O1590       O  0.85411447  0.19920171  0.80544868    -0.68800
O1591       O  0.70314083  0.10690312  0.85854062    -0.88100
C1592       C  0.85624683  0.18855251  0.82526142     0.84200
C1593       C  0.84953302  0.12708227  0.78825196     1.05700
H1594       H  0.77880070  0.13864788  0.85056371     0.37500
O1595       O  0.76605989  0.12166319  0.83949976    -1.10700
O1596       O  0.72049478  0.10413958  0.80312095    -0.67400
Ni1597     Ni  0.75859340  0.14554988  0.81500458     1.26300
O1598       O  0.83634144  0.15699471  0.83378077    -0.67600
O1599       O  0.72767355  0.15201371  0.83215102    -0.79900
C1600       C  0.77939696  0.20177354  0.78480208     0.83500
O1601       O  0.75397631  0.17130903  0.79064201    -0.67100
Ni1602     Ni  0.72704241  0.08236261  0.85618103     1.27400
Ni1603     Ni  0.79737552  0.11477738  0.82239145     1.26100
H1604       H  0.77665771  0.12121256  0.78717951     0.38100
O1605       O  0.91782494  0.01055050  0.00712783    -0.81900
O1606       O  0.97444803  0.44230117  0.94104429    -0.66600
O1607       O  0.92603623  0.45471048  0.98863980    -1.13200
C1608       C  0.53535145  0.50973524  0.02190955     1.05000
O1609       O  0.00112408  0.42554485  0.96417452    -0.79800
O1610       O  0.98325305  0.42046035  0.00929115    -0.67300
Ni1611     Ni  0.90557298  0.98208627  0.98127712     1.34900
C1612       C  0.96538919  0.42295319  0.02479802     0.83800
O1613       O  0.90832158  0.41837921  0.94843358    -0.80300
O1614       O  0.88045325  0.44522779  0.95427932    -0.90600
C1615       C  0.99287367  0.42978250  0.94436627     0.83300
O1616       O  0.93934959  0.02206052  0.96230596    -0.68800
O1617       O  0.53793685  0.48704521  0.01173269    -0.88100
C1618       C  0.95877396  0.02249912  0.94660331     0.84200
C1619       C  0.88492359  0.42405025  0.94368186     1.05700
H1620       H  0.50609930  0.49939076  0.97144827     0.37500
O1621       O  0.98986840  0.47681964  0.97994807    -1.10700
O1622       O  0.95946061  0.44725093  0.02431362    -0.67400
Ni1623     Ni  0.96766324  0.48544964  0.00370023     1.26300
O1624       O  0.95815681  0.48818842  0.94529422    -0.67600
O1625       O  0.51148839  0.51538794  0.01858126    -0.79900
C1626       C  0.93213326  0.01132430  0.02554862     0.83500
O1627       O  0.95172769  0.00005913  0.02770227    -0.67100
Ni1628     Ni  0.01679919  0.45743585  0.98819691     1.27400
Ni1629     Ni  0.94922768  0.44781169  0.96418646     1.26100
H1630       H  0.91203036  0.43282858  0.99763782     0.38100
O1631       O  0.53957112  0.24670937  0.63216626    -0.81900
O1632       O  0.66763043  0.34494352  0.69108595    -0.66600
O1633       O  0.59916936  0.30627770  0.64733050    -1.13200
C1634       C  0.67299168  0.28588983  0.60692197     1.05000
O1635       O  0.71464423  0.36321980  0.66891848    -0.79800
O1636       O  0.68883009  0.36909609  0.62851053    -0.67300
Ni1637     Ni  0.55255877  0.27328795  0.65898263     1.34900
C1638       C  0.66852259  0.36097878  0.61234470     0.83800
O1639       O  0.61099462  0.34494507  0.68443088    -0.80300
O1640       O  0.55784885  0.29680715  0.68659438    -0.90600
C1641       C  0.70006517  0.36087925  0.68806001     0.83300
O1642       O  0.56406128  0.24298294  0.67426704    -0.68800
O1643       O  0.69526032  0.31623735  0.61309272    -0.88100
C1644       C  0.58567417  0.25276326  0.68977048     0.84200
C1645       C  0.58036636  0.32687762  0.69301953     1.05700
H1646       H  0.65345319  0.28696119  0.66249520     0.37500
O1647       O  0.65445568  0.30581291  0.65339868    -1.10700
O1648       O  0.64377109  0.32928853  0.61046509    -0.67400
Ni1649     Ni  0.62070497  0.28709692  0.63115623     1.26300
O1650       O  0.61070660  0.28455474  0.69041915    -0.67600
O1651       O  0.64266692  0.26774667  0.61590834    -0.79900
C1652       C  0.55407418  0.25111456  0.61262594     0.83500
O1653       O  0.58656891  0.26864492  0.60945869    -0.67100
Ni1654     Ni  0.70097435  0.33822737  0.64159223     1.27400
Ni1655     Ni  0.63320109  0.32571159  0.66935865     1.26100
H1656       H  0.59979556  0.32495920  0.63823506     0.38100
C1657       C  0.94370027  0.13004728  0.78369426    -0.07100
C1658       C  0.91406497  0.09942313  0.79333225    -0.18200
C1659       C  0.88169756  0.09565977  0.79335259     0.10100
C1660       C  0.87902857  0.12322020  0.78333245    -0.07000
C1661       C  0.90849673  0.15253344  0.77232016    -0.18300
C1662       C  0.94073168  0.15695763  0.77316105     0.10100
S1663       S  0.84439631  0.05539336  0.80580772    -0.33200
S1664       S  0.97798732  0.19913045  0.76280497    -0.33200
H1665       H  0.96276321  0.21863463  0.76558300     0.28100
H1666       H  0.86237818  0.04169676  0.81615986     0.28100
H1667       H  0.91642212  0.07863268  0.80097345     0.18700
H1668       H  0.90709911  0.17382732  0.76451662     0.18700
C1669       C  0.55748564  0.18388175  0.75000439    -0.07100
C1670       C  0.54953964  0.16957756  0.72872669    -0.18200
C1671       C  0.56053021  0.19109773  0.70847984     0.10100
C1672       C  0.57975504  0.22800501  0.70944174    -0.07000
C1673       C  0.58997194  0.24210717  0.73076184    -0.18300
C1674       C  0.57896075  0.22058444  0.75092580     0.10100
S1675       S  0.54762031  0.16972262  0.68224098    -0.33200
S1676       S  0.58839619  0.24169697  0.77732222    -0.33200
H1677       H  0.59602402  0.21871024  0.78842570     0.28100
H1678       H  0.57776530  0.19544752  0.66955259     0.28100
H1679       H  0.53248163  0.14140972  0.72795138     0.18700
H1680       H  0.60444675  0.27029490  0.73199957     0.18700
C1681       C  0.61502701  0.14013790  0.85020674    -0.07100
C1682       C  0.62273364  0.12608836  0.86940968    -0.18200
C1683       C  0.65337488  0.12655017  0.87017382     0.10100
C1684       C  0.67649275  0.13954546  0.85088388    -0.07000
C1685       C  0.67003424  0.15592355  0.83242378    -0.18300
C1686       C  0.64057940  0.15752653  0.83221190     0.10100
S1687       S  0.66172857  0.11093587  0.89639707    -0.33200
S1688       S  0.63802780  0.18276774  0.80858453    -0.33200
H1689       H  0.62592168  0.19893465  0.82224533     0.28100
H1690       H  0.69761718  0.13540620  0.89435881     0.28100
H1691       H  0.60461025  0.11413708  0.88401546     0.18700
H1692       H  0.68754742  0.16680749  0.81749866     0.18700
C1693       C  0.50190318  0.09334618  0.88812748    -0.07100
C1694       C  0.51582388  0.10461183  0.90938555    -0.18200
C1695       C  0.49954049  0.08370879  0.92951505     0.10100
C1696       C  0.46869968  0.05077467  0.92841460    -0.07000
C1697       C  0.95821373  0.03508930  0.90596656    -0.18300
C1698       C  0.46931608  0.06173754  0.88740948     0.10100
S1699       S  0.52065322  0.09917803  0.95573027    -0.33200
S1700       S  0.95748364  0.03439749  0.85953965    -0.33200
H1701       H  0.95106431  0.05945451  0.85036199     0.28100
H1702       H  0.49121587  0.07791606  0.97029239     0.28100
H1703       H  0.54063617  0.12897445  0.91017867     0.18700
H1704       H  0.93808225  0.00756673  0.90529731     0.18700
C1705       C  0.94340484  0.28176850  0.84490902    -0.07100
C1706       C  0.91039334  0.27399686  0.85126781    -0.18200
C1707       C  0.88092943  0.24114818  0.84793731     0.10100
C1708       C  0.88437207  0.21540900  0.83808869    -0.07000
C1709       C  0.91753120  0.22219249  0.83358263    -0.18300
C1710       C  0.94706590  0.25493014  0.83720708     0.10100
S1711       S  0.83942456  0.23470368  0.85425709    -0.33200
S1712       S  0.98862132  0.26126325  0.83119390    -0.33200
H1713       H  0.00587815  0.28569067  0.84762564     0.28100
H1714       H  0.82207878  0.19815171  0.85864825     0.28100
H1715       H  0.90739271  0.29427131  0.85763475     0.18700
H1716       H  0.92041788  0.20272775  0.82574649     0.18700
C1717       C  0.00928224  0.38760522  0.88614399    -0.07100
C1718       C  0.01611222  0.42177942  0.88427312    -0.18200
C1719       C  0.01319971  0.43719943  0.90345000     0.10100
C1720       C  0.00285659  0.41776952  0.92475991    -0.07000
C1721       C  0.99995541  0.38536532  0.92698552    -0.18300
C1722       C  0.49879627  0.36645440  0.91021956     0.10100
S1723       S  0.02253048  0.48147779  0.90057393    -0.33200
S1724       S  0.49293831  0.32410820  0.91629102    -0.33200
H1725       H  0.51663900  0.32846352  0.89900028     0.28100
H1726       H  0.03373888  0.48849831  0.87745965     0.28100
H1727       H  0.02177090  0.43556484  0.86764500     0.18700
H1728       H  0.48657546  0.36852019  0.94507067     0.18700
C1729       C  0.62206236  0.97836906  0.78812918    -0.07100
C1730       C  0.61428843  0.00210806  0.79605112    -0.18200
C1731       C  0.64063470  0.03616201  0.80039868     0.10100
C1732       C  0.67512613  0.04635418  0.79682880    -0.07000
C1733       C  0.68291685  0.02411213  0.78660424    -0.18300
C1734       C  0.65671095  0.98990501  0.78235636     0.10100
S1735       S  0.63040058  0.06532016  0.81279416    -0.33200
S1736       S  0.66833799  0.96025515  0.77250655    -0.33200
H1737       H  0.69843958  0.48995403  0.76392901     0.28100
H1738       H  0.59472113  0.04476170  0.80978893     0.28100
H1739       H  0.58766537  0.99330276  0.80002026     0.18700
H1740       H  0.70967808  0.03240811  0.78414798     0.18700
C1741       C  0.56263839  0.36768100  0.75172668    -0.07100
C1742       C  0.57136460  0.38679580  0.73049158    -0.18200
C1743       C  0.57562489  0.37335386  0.71081218     0.10100
C1744       C  0.57120648  0.34008173  0.71225862    -0.07000
C1745       C  0.56082758  0.32010579  0.73314594    -0.18300
C1746       C  0.55704350  0.33369595  0.75295476     0.10100
S1747       S  0.58674009  0.39981480  0.68437148    -0.33200
S1748       S  0.54838435  0.30764836  0.77929049    -0.33200
H1749       H  0.57379549  0.33574979  0.79102223     0.28100
H1750       H  0.56971296  0.37140862  0.67051448     0.28100
H1751       H  0.57536738  0.41268859  0.72924514     0.18700
H1752       H  0.55779563  0.29462582  0.73429354     0.18700
C1753       C  0.79181421  0.47149336  0.84955602    -0.07100
C1754       C  0.75966734  0.96673879  0.84264758    -0.18200
C1755       C  0.75405646  0.99421792  0.84310970     0.10100
C1756       C  0.77858653  0.02624372  0.85246372    -0.07000
C1757       C  0.80857921  0.02963220  0.86071526    -0.18300
C1758       C  0.81453621  0.00228118  0.85983897     0.10100
S1759       S  0.71614515  0.98735443  0.82989381    -0.33200
S1760       S  0.85511190  0.00979520  0.86898492    -0.33200
H1761       H  0.85943391  0.53341171  0.88859562     0.28100
H1762       H  0.73395026  0.02028034  0.81758998     0.28100
H1763       H  0.75172556  0.45292002  0.82557726     0.18700
H1764       H  0.82772335  0.05409801  0.86753074     0.18700
C1765       C  0.82181916  0.39337309  0.88611317    -0.07100
C1766       C  0.85520385  0.40002686  0.88373517    -0.18200
C1767       C  0.87556330  0.40675357  0.90264250     0.10100
C1768       C  0.86233186  0.40697785  0.92450551    -0.07000
C1769       C  0.82770505  0.39679731  0.92699969    -0.18300
C1770       C  0.80737820  0.38978961  0.90818182     0.10100
S1771       S  0.92614993  0.92860415  0.89736461    -0.33200
S1772       S  0.76399967  0.37937466  0.91316258    -0.33200
H1773       H  0.75134429  0.36279808  0.89285461     0.28100
H1774       H  0.92497822  0.90401354  0.91351413     0.28100
H1775       H  0.86669534  0.40335179  0.86684342     0.18700
H1776       H  0.81696510  0.39633906  0.94361687     0.18700
C1777       C  0.77450438  0.23149562  0.78386110    -0.07100
C1778       C  0.75750577  0.23474276  0.80266797    -0.18200
C1779       C  0.75573344  0.26439789  0.80453179     0.10100
C1780       C  0.77243911  0.29240032  0.78759003    -0.07000
C1781       C  0.78849630  0.28866047  0.76838314    -0.18300
C1782       C  0.78941894  0.25850746  0.76625883     0.10100
S1783       S  0.73091783  0.26426734  0.82855307    -0.33200
S1784       S  0.80931019  0.25570014  0.74056072    -0.33200
H1785       H  0.78826996  0.21891487  0.74041246     0.28100
H1786       H  0.71762974  0.28168662  0.81656579     0.28100
H1787       H  0.74623325  0.21441142  0.81639313     0.18700
H1788       H  0.80055561  0.30949158  0.75490727     0.18700
C1789       C  0.72193832  0.37443394  0.70797238    -0.07100
C1790       C  0.75331456  0.37615112  0.70725435    -0.18200
C1791       C  0.77041762  0.37843685  0.72703538     0.10100
C1792       C  0.75578224  0.37843327  0.74827984    -0.07000
C1793       C  0.72701408  0.38137078  0.74878173    -0.18300
C1794       C  0.71028788  0.38002096  0.72879089     0.10100
S1795       S  0.80973121  0.37893119  0.72422245    -0.33200
S1796       S  0.67384246  0.38456120  0.73114869    -0.33200
H1797       H  0.67919615  0.40065608  0.70909383     0.28100
H1798       H  0.82341640  0.39542414  0.74440919     0.28100
H1799       H  0.76353422  0.37320585  0.69143628     0.18700
H1800       H  0.71612973  0.38233875  0.76495945     0.18700
C1801       C  0.97310876  0.08026312  0.44483113    -0.07100
C1802       C  0.99752101  0.10870371  0.45688993    -0.18200
C1803       C  0.99688254  0.13915653  0.45825310     0.10100
C1804       C  0.97070812  0.14138360  0.44779804    -0.07000
C1805       C  0.94801437  0.11424012  0.43433980    -0.18300
C1806       C  0.94896381  0.08406926  0.43249821     0.10100
S1807       S  0.52996363  0.17677942  0.47336441    -0.33200
S1808       S  0.91679836  0.04998932  0.41585725    -0.33200
H1809       H  0.90709923  0.07070606  0.40384206     0.28100
H1810       H  0.53266170  0.20358384  0.45855356     0.28100
H1811       H  0.51756805  0.10954740  0.46726012     0.18700
H1812       H  0.92798869  0.11571535  0.42609525     0.18700
C1813       C  0.96065511  0.29776238  0.51875285    -0.07100
C1814       C  0.93100578  0.29431327  0.50986721    -0.18200
C1815       C  0.92462338  0.32125915  0.51091085     0.10100
C1816       C  0.94857404  0.35258541  0.52100261    -0.07000
C1817       C  0.97719952  0.35494615  0.53098437    -0.18300
C1818       C  0.98391417  0.32853191  0.52952007     0.10100
S1819       S  0.37875566  0.31125407  0.50103265    -0.33200
S1820       S  0.02445876  0.33757416  0.53972865    -0.33200
H1821       H  0.03171517  0.32309517  0.52159498     0.28100
H1822       H  0.36761790  0.27954166  0.49100956     0.28100
H1823       H  0.91280159  0.27036066  0.50211842     0.18700
H1824       H  0.99637014  0.37895479  0.53829821     0.18700
C1825       C  0.00021105  0.22641032  0.55275999    -0.07100
C1826       C  0.98221712  0.21782000  0.57391228    -0.18200
C1827       C  0.49631873  0.21949170  0.59312713     0.10100
C1828       C  0.53288819  0.23723917  0.59229743    -0.07000
C1829       C  0.55058439  0.24629631  0.57079075    -0.18300
C1830       C  0.53353794  0.24126425  0.55062956     0.10100
S1831       S  0.47060521  0.20455890  0.61967844    -0.33200
S1832       S  0.55949620  0.25896791  0.52438763    -0.33200
H1833       H  0.53793376  0.22899546  0.51265410     0.28100
H1834       H  0.43800210  0.18710353  0.61032632     0.28100
H1835       H  0.95530282  0.20939521  0.57434433     0.18700
H1836       H  0.57841528  0.25955186  0.56948629     0.18700
C1837       C  0.87072940  0.36256650  0.45292743    -0.07100
C1838       C  0.87106249  0.33391379  0.44534910    -0.18200
C1839       C  0.84119388  0.29980270  0.44773560     0.10100
C1840       C  0.81027152  0.29455269  0.45739795    -0.07000
C1841       C  0.81043300  0.32299102  0.46561671    -0.18300
C1842       C  0.84025692  0.35651384  0.46399839     0.10100
S1843       S  0.84336697  0.26309304  0.43963485    -0.33200
S1844       S  0.83796076  0.38987832  0.47772275    -0.33200
H1845       H  0.87045151  0.40452873  0.48709103     0.28100
H1846       H  0.87940145  0.28176718  0.43575015     0.28100
H1847       H  0.89466410  0.33829939  0.43761042     0.18700
H1848       H  0.78704637  0.31909614  0.47343462     0.18700
C1849       C  0.54454024  0.06916573  0.52071169    -0.07100
C1850       C  0.55751426  0.08792374  0.49945216    -0.18200
C1851       C  0.58998745  0.11914745  0.49679044     0.10100
C1852       C  0.61032721  0.13211076  0.51587596    -0.07000
C1853       C  0.59710300  0.11330244  0.53720395    -0.18300
C1854       C  0.56469247  0.08198171  0.53977116     0.10100
S1855       S  0.60355163  0.14094533  0.46867175    -0.33200
S1856       S  0.55083853  0.05920890  0.56763987    -0.33200
H1857       H  0.51525460  0.04171310  0.56448350     0.28100
H1858       H  0.61625399  0.17460014  0.47615569     0.28100
H1859       H  0.54284620  0.07736404  0.48454313     0.18700
H1860       H  0.61237229  0.12279806  0.55201560     0.18700
C1861       C  0.68201773  0.27167900  0.58809483    -0.07100
C1862       C  0.67894931  0.23939591  0.59216096    -0.18200
C1863       C  0.68380226  0.22290228  0.57444456     0.10100
C1864       C  0.69068559  0.23832246  0.55197244    -0.07000
C1865       C  0.69630010  0.27183492  0.54813310    -0.18300
C1866       C  0.69186021  0.28859277  0.56596609     0.10100
S1867       S  0.68004670  0.18172058  0.58140951    -0.33200
S1868       S  0.69573788  0.32977223  0.55908858    -0.33200
H1869       H  0.66488656  0.31989923  0.57112741     0.28100
H1870       H  0.70084784  0.18429320  0.56269107     0.28100
H1871       H  0.67224131  0.22671255  0.60921179     0.18700
H1872       H  0.70123914  0.28366725  0.53091407     0.18700
C1873       C  0.61176401  0.45456245  0.46715911    -0.07100
C1874       C  0.60375654  0.47762192  0.45646497    -0.18200
C1875       C  0.57294496  0.47541436  0.46194375     0.10100
C1876       C  0.54874479  0.44877352  0.47786241    -0.07000
C1877       C  0.55625743  0.42521286  0.48825377    -0.18300
C1878       C  0.58722181  0.42755635  0.48294389     0.10100
S1879       S  0.56711267  0.50882212  0.44932108    -0.33200
S1880       S  0.59339358  0.39488854  0.49645517    -0.33200
H1881       H  0.61053215  0.39239873  0.47738162     0.28100
H1882       H  0.55095353  0.51181705  0.46874922     0.28100
H1883       H  0.62242396  0.49873107  0.44452802     0.18700
H1884       H  0.53783022  0.40484393  0.50067136     0.18700
C1885       C  0.86851470  0.48329104  0.49032804    -0.07100
C1886       C  0.85898259  0.00266444  0.47853753    -0.18200
C1887       C  0.82918527  0.00216639  0.48466526     0.10100
C1888       C  0.80451955  0.47668042  0.49985086    -0.07000
C1889       C  0.81611532  0.45965526  0.51424761    -0.18300
C1890       C  0.84799597  0.46332482  0.50997834     0.10100
S1891       S  0.82202815  0.03249878  0.46875324    -0.33200
S1892       S  0.85986344  0.43993516  0.52924344    -0.33200
H1893       H  0.89154009  0.47027555  0.53373129     0.28100
H1894       H  0.80979917  0.04084049  0.48787600     0.28100
H1895       H  0.87476716  0.01901662  0.46369536     0.18700
H1896       H  0.79997347  0.44271197  0.52879066     0.18700
C1897       C  0.67722873  0.38840096  0.59365994    -0.07100
C1898       C  0.71050064  0.41912340  0.59266826    -0.18200
C1899       C  0.72424955  0.44169449  0.57302609     0.10100
C1900       C  0.70489043  0.43323128  0.55340084    -0.07000
C1901       C  0.67012921  0.40530718  0.55520695    -0.18300
C1902       C  0.65589103  0.38296196  0.57519363     0.10100
S1903       S  0.76698824  0.48048446  0.57404562    -0.33200
S1904       S  0.61088661  0.34765126  0.57649844    -0.33200
H1905       H  0.60415288  0.35239227  0.55385965     0.28100
H1906       H  0.76160190  0.50105592  0.55813540     0.28100
H1907       H  0.72689236  0.42492114  0.60690132     0.18700
H1908       H  0.65471278  0.39966176  0.54047527     0.18700
C1909       C  0.88446166  0.20017788  0.38057743    -0.07100
C1910       C  0.86698589  0.18580930  0.40204733    -0.18200
C1911       C  0.88504689  0.18891257  0.42160329     0.10100
C1912       C  0.92121681  0.20672210  0.41968498    -0.07000
C1913       C  0.93885215  0.22456335  0.39902413    -0.18300
C1914       C  0.92093104  0.22251279  0.37964805     0.10100
S1915       S  0.86173215  0.16706364  0.44840222    -0.33200
S1916       S  0.94626473  0.24849831  0.35439404    -0.33200
H1917       H  0.92171587  0.25576738  0.34703321     0.28100
H1918       H  0.82845916  0.15440964  0.44085429     0.28100
H1919       H  0.83909001  0.16973110  0.40330008     0.18700
H1920       H  0.96679196  0.23916298  0.39778887     0.18700
C1921       C  0.73419049  0.15959715  0.38088720    -0.07100
C1922       C  0.74187103  0.19399010  0.37832721    -0.18200
C1923       C  0.73826849  0.21008573  0.39674111     0.10100
C1924       C  0.72798407  0.19195137  0.41849429    -0.07000
C1925       C  0.71686325  0.15637428  0.42062921    -0.18300
C1926       C  0.72006073  0.14003142  0.40204005     0.10100
S1927       S  0.74841121  0.25432942  0.39161079    -0.33200
S1928       S  0.70963628  0.09575976  0.40706185    -0.33200
H1929       H  0.74119760  0.10348023  0.39731516     0.28100
H1930       H  0.72699366  0.25225391  0.40975386     0.28100
H1931       H  0.75173620  0.20879676  0.36198426     0.18700
H1932       H  0.70882376  0.14225177  0.43724622     0.18700
C1933       C  0.74484497  0.04660150  0.37581830    -0.07100
C1934       C  0.71209013  0.01518981  0.37660730    -0.18200
C1935       C  0.69055420  0.48906136  0.39304267     0.10100
C1936       C  0.70973940  0.49828903  0.41279918    -0.07000
C1937       C  0.75114173  0.03154216  0.41493877    -0.18300
C1938       C  0.76558194  0.05307987  0.39478506     0.10100
S1939       S  0.64893982  0.44885581  0.39190587    -0.33200
S1940       S  0.80997964  0.08895441  0.39494302    -0.33200
H1941       H  0.81758716  0.08697270  0.37207646     0.28100
H1942       H  0.65582610  0.42936347  0.40772177     0.28100
H1943       H  0.69616038  0.00860327  0.36206780     0.18700
H1944       H  0.76624519  0.03851196  0.42990958     0.18700
C1945       C  0.80889189  0.29876734  0.12231734    -0.07100
C1946       C  0.80121418  0.31307482  0.10322515    -0.18200
C1947       C  0.76998625  0.31131466  0.10204857     0.10100
C1948       C  0.74582041  0.29635223  0.12081537    -0.07000
C1949       C  0.75208857  0.27915882  0.13892452    -0.18300
C1950       C  0.78252964  0.27931042  0.13956943     0.10100
S1951       S  0.76296403  0.32893905  0.07615933    -0.33200
S1952       S  0.78550748  0.25390998  0.16284293    -0.33200
H1953       H  0.80076513  0.24072138  0.14919956     0.28100
H1954       H  0.72747728  0.30296704  0.07648194     0.28100
H1955       H  0.81998517  0.32664299  0.08907439     0.18700
H1956       H  0.73378174  0.26648737  0.15337098     0.18700
C1957       C  0.95277152  0.39869488  0.04544083    -0.07100
C1958       C  0.95947304  0.41369691  0.06651802    -0.18200
C1959       C  0.94569531  0.39293685  0.08689084     0.10100
C1960       C  0.92396097  0.35619451  0.08635591    -0.07000
C1961       C  0.91827277  0.34096107  0.06536924    -0.18300
C1962       C  0.93292357  0.36187105  0.04487265     0.10100
S1963       S  0.95342478  0.41506336  0.11276649    -0.33200
S1964       S  0.92339205  0.34161980  0.01812299    -0.33200
H1965       H  0.90818038  0.30691047  0.02745171     0.28100
H1966       H  0.96247474  0.39381586  0.12471143     0.28100
H1967       H  0.97498275  0.44202374  0.06707740     0.18700
H1968       H  0.90084634  0.31280403  0.06498670     0.18700
C1969       C  0.54347964  0.31497569  0.18629143    -0.07100
C1970       C  0.54001544  0.33757922  0.17082189    -0.18200
C1971       C  0.01493861  0.34505942  0.16967798     0.10100
C1972       C  0.98870370  0.32344847  0.18663040    -0.07000
C1973       C  0.99659483  0.30711009  0.20429305    -0.18300
C1974       C  0.51762479  0.29592934  0.20387772     0.10100
S1975       S  0.01176059  0.37365802  0.14895147    -0.33200
S1976       S  0.52228714  0.27098445  0.22684300    -0.33200
H1977       H  0.49348007  0.26346440  0.24053727     0.28100
H1978       H  0.99466321  0.38298581  0.16420232     0.28100
H1979       H  0.56015528  0.35371613  0.15777400     0.18700
H1980       H  0.97776880  0.29198382  0.21816244     0.18700
C1981       C  0.87362718  0.26002692  0.22327658    -0.07100
C1982       C  0.88327840  0.27238366  0.24498313    -0.18200
C1983       C  0.87045734  0.24949293  0.26464562     0.10100
C1984       C  0.84831418  0.21288244  0.26268214    -0.01000
C1985       C  0.83638819  0.20099695  0.24108618    -0.18300
C1986       C  0.84859259  0.22407023  0.22150742     0.10100
S1987       S  0.88414681  0.26875150  0.29152930    -0.33200
S1988       S  0.83491924  0.20529436  0.19454202    -0.33200
H1989       H  0.82647705  0.22947163  0.18695945     0.28100
H1990       H  0.85283201  0.24418457  0.30359318     0.28100
H1991       H  0.90225689  0.30001217  0.24654505     0.18700
H1992       H  0.81918666  0.17315208  0.23910556     0.18700
C1993       C  0.80454611  0.46198557  0.18034982    -0.07100
C1994       C  0.81209458  0.44155530  0.16746161    -0.18200
C1995       C  0.78625031  0.40755414  0.16268045     0.10100
C1996       C  0.75222135  0.39332170  0.17130010    -0.07000
C1997       C  0.74518569  0.41203712  0.18616950    -0.18300
C1998       C  0.77093804  0.44644583  0.19076149     0.10100
S1999       S  0.79602283  0.38364572  0.14362688    -0.33200
S2000       S  0.75890550  0.47110071  0.20736790    -0.33200
H2001       H  0.72535536  0.44308362  0.21427389     0.28100
H2002       H  0.83163939  0.40874655  0.14044945     0.28100
H2003       H  0.83792016  0.45305154  0.15999509     0.18700
H2004       H  0.71874706  0.40107652  0.19220029     0.18700
C2005       C  0.86738417  0.06819928  0.22349735    -0.07100
C2006       C  0.84788144  0.04614113  0.24283830    -0.18200
C2007       C  0.84324474  0.05955142  0.26237327     0.10100
C2008       C  0.85767720  0.09592721  0.26269627    -0.07000
C2009       C  0.88005662  0.11840926  0.24456292    -0.18300
C2010       C  0.88567376  0.10511242  0.22519894     0.10100
S2011       S  0.81674158  0.53386091  0.28396691    -0.33200
S2012       S  0.91539970  0.13697705  0.20334521    -0.33200
H2013       H  0.93467292  0.12135479  0.20183879     0.28100
H2014       H  0.83494775  0.05263229  0.30301747     0.28100
H2015       H  0.83540928  0.52331323  0.24098982     0.18700
H2016       H  0.89209057  0.14653154  0.24502498     0.18700
C2017       C  0.97865215  0.16213590  0.12440023    -0.07100
C2018       C  0.01074030  0.17080560  0.11483939    -0.18200
C2019       C  0.54106868  0.19898388  0.11985361     0.10100
C2020       C  0.53947069  0.22372270  0.13235895    -0.07000
C2021       C  0.50730827  0.21841218  0.13821620    -0.18300
C2022       C  0.97640689  0.18801671  0.13509065     0.10100
S2023       S  0.58138575  0.20512445  0.11023544    -0.33200
S2024       S  0.93600673  0.18182852  0.14457665    -0.33200
H2025       H  0.91668055  0.15939182  0.12764394     0.28100
H2026       H  0.59939667  0.24195863  0.10814362     0.28100
H2027       H  0.01272404  0.15154993  0.10596215     0.18700
H2028       H  0.50603669  0.23760669  0.14770407     0.18700
C2029       C  0.91927071  0.05506460  0.08466202    -0.07100
C2030       C  0.92615780  0.07314752  0.06318287    -0.18200
C2031       C  0.93064300  0.05962134  0.04362387     0.10100
C2032       C  0.92654993  0.02646390  0.04530047    -0.07000
C2033       C  0.91915505  0.00806389  0.06665493    -0.18300
C2034       C  0.91590303  0.02214327  0.08642858     0.10100
S2035       S  0.94497185  0.08736153  0.01755030    -0.33200
S2036       S  0.91095396  0.99940109  0.11375063    -0.33200
H2037       H  0.90762658  0.96920396  0.10549032     0.28100
H2038       H  0.96864025  0.07865874  0.01057633     0.28100
H2039       H  0.92977383  0.09887230  0.06177671     0.18700
H2040       H  0.91693486  0.98300147  0.06784547     0.18700
C2041       C  0.64967416  0.14507598  0.18373633    -0.07100
C2042       C  0.63701875  0.15030790  0.20407965    -0.18200
C2043       C  0.63743169  0.18109075  0.20684647     0.10100
C2044       C  0.65055338  0.20746952  0.18889942    -0.07000
C2045       C  0.66416772  0.20275263  0.16887523    -0.18300
C2046       C  0.66445128  0.17235563  0.16623559     0.10100
S2047       S  0.62093504  0.18527687  0.23361386    -0.33200
S2048       S  0.68470140  0.17053561  0.14036784    -0.33200
H2049       H  0.69947234  0.15342364  0.15077901     0.28100
H2050       H  0.64209330  0.22213926  0.23285674     0.28100
H2051       H  0.62640696  0.13006438  0.21793339     0.18700
H2052       H  0.67359517  0.22236409  0.15475947     0.18700
C2053       C  0.70528799  0.06432090  0.25957576    -0.07100
C2054       C  0.67190395  0.05805632  0.26136800    -0.18200
C2055       C  0.65384758  0.05571352  0.24212085     0.10100
C2056       C  0.66909255  0.05940914  0.22039835    -0.07000
C2057       C  0.70039493  0.06125929  0.21851760    -0.18300
C2058       C  0.71874887  0.06366433  0.23790458     0.10100
S2059       S  0.61012355  0.55883382  0.23673155    -0.33200
S2060       S  0.75960214  0.06720346  0.23443019    -0.33200
H2061       H  0.75775662  0.06120707  0.21115269     0.28100
H2062       H  0.59874529  0.54337251  0.21594352     0.28100
H2063       H  0.66057363  0.05751882  0.27776583     0.18700
H2064       H  0.71179281  0.06378132  0.20174118     0.18700
C2065       C  0.63100623  0.46337139  0.11890905    -0.07100
C2066       C  0.66014907  0.46665357  0.12854898    -0.18200
C2067       C  0.66579468  0.43923667  0.12897055     0.10100
C2068       C  0.64245947  0.40778037  0.11879871    -0.07000
C2069       C  0.61263274  0.40391328  0.10982877    -0.18300
C2070       C  0.60649519  0.43115960  0.10988645     0.10100
S2071       S  0.70200751  0.44526447  0.14423495    -0.33200
S2072       S  0.56645151  0.42359732  0.09954101    -0.33200
H2073       H  0.55078937  0.38763828  0.09640669     0.28100
H2074       H  0.68390516  0.41127796  0.15518923     0.28100
H2075       H  0.67865969  0.49076854  0.13605101     0.18700
H2076       H  0.59402710  0.37935246  0.10286041     0.18700
C2077       C  0.59612059  0.53630351  0.07950427    -0.07100
C2078       C  0.61145705  0.04639813  0.06381894    -0.18200
C2079       C  0.59413132  0.04191340  0.04375531     0.10100
C2080       C  0.55957910  0.52746418  0.03994529    -0.07000
C2081       C  0.54602308  0.52886065  0.06111524    -0.18300
C2082       C  0.56401537  0.53334803  0.08090428     0.10100
S2083       S  0.61779915  0.04924157  0.01717355    -0.33200
S2084       S  0.54242992  0.52965402  0.10764411    -0.33200
H2085       H  0.57129629  0.55925035  0.11596166     0.28100
H2086       H  0.59819820  0.05847596  0.00414703     0.28100
H2087       H  0.63750058  0.05203869  0.06282446     0.18700
H2088       H  0.51997424  0.52313666  0.06263653     0.18700
C2089       C  0.60924927  0.03333106  0.10510603     0.79200
N2090       N  0.61237069  0.00529107  0.10479173    -0.79100
C2091       C  0.62359226  0.99539431  0.12291210     0.81700
N2092       N  0.63263332  0.01463380  0.14151946    -0.79000
C2093       C  0.63479562  0.54378093  0.13544049     0.81800
N2094       N  0.62145515  0.55086367  0.11710912    -0.80700
C2095       C  0.65890343  0.57354245  0.19336978     0.79200
N2096       N  0.65278132  0.55522316  0.17461708    -0.79100
C2097       C  0.64431742  0.56555364  0.15508395     0.81700
N2098       N  0.64268857  0.59478316  0.15433709    -0.79000
C2099       C  0.64954451  0.61351205  0.17306187     0.81800
N2100       N  0.65726838  0.60247022  0.19242527    -0.80700
C2101       C  0.94536610  0.62318456  0.12222626     0.79200
N2102       N  0.94177117  0.60539746  0.10353752    -0.79100
C2103       C  0.91665984  0.57084051  0.10332005     0.81700
N2104       N  0.89525925  0.55390153  0.12211257    -0.79000
C2105       C  0.89874834  0.57142583  0.14097703     0.81800
N2106       N  0.92394818  0.60603590  0.14098083    -0.80700
C2107       C  0.83449501  0.00055113  0.18121716     0.79200
N2108       N  0.85523919  0.01910252  0.16245424    -0.79100
C2109       C  0.87624802  0.55263265  0.16155029     0.81700
N2110       N  0.87836524  0.57022943  0.18013846    -0.79000
C2111       C  0.85691270  0.55284120  0.19887038     0.81800
N2112       N  0.83944164  0.01672714  0.20076514    -0.80700
C2113       C  0.94818578  0.81092095  0.18464061     0.79200
N2114       N  0.93739622  0.81817842  0.16495399    -0.79100
C2115       C  0.90354466  0.80698671  0.16283806     0.81700
N2116       N  0.88008560  0.78717199  0.18048036    -0.79000
C2117       C  0.89074304  0.77935683  0.20006787     0.81800
N2118       N  0.92451989  0.79161694  0.20187173    -0.80700
C2119       C  0.84912908  0.81489769  0.11958883     0.79200
N2120       N  0.85934741  0.80720925  0.13944068    -0.79100
C2121       C  0.89251578  0.81576820  0.14125172     0.81700
N2122       N  0.91576613  0.83315294  0.12315361    -0.79000
C2123       C  0.90554081  0.84067950  0.10330462     0.81800
N2124       N  0.87250015  0.83142955  0.10181056    -0.80700
O2125       O  0.67687939  0.88886582  0.11402182    -0.81900
O2126       O  0.67103019  0.76764878  0.17428765    -0.66600
O2127       O  0.65971942  0.82073077  0.12769605    -1.13200
C2128       C  0.57721118  0.81404603  0.18171571     1.05000
O2129       O  0.61503586  0.73346815  0.18325490    -0.79800
O2130       O  0.56870852  0.74470803  0.16604970    -0.67300
Ni2131     Ni  0.69772698  0.86144330  0.11194813     1.34900
C2132       C  0.56794560  0.75199953  0.14512236     0.83800
O2133       O  0.69775958  0.78996200  0.13236722    -0.80300
O2134       O  0.72363795  0.83912351  0.10929487    -0.90600
C2135       C  0.64431350  0.73755006  0.17953031     0.83300
O2136       O  0.72127575  0.88228904  0.13810893    -0.68800
O2137       O  0.58300862  0.79478327  0.19497102    -0.88100
C2138       C  0.72520769  0.86962377  0.15654493     0.84200
C2139       C  0.72198415  0.81186615  0.11821074     1.05700
H2140       H  0.65144354  0.82157802  0.17928045     0.37500
O2141       O  0.63755929  0.80335591  0.16926830    -1.10700
O2142       O  0.59014981  0.78123913  0.13444540    -0.67400
Ni2143     Ni  0.62708982  0.82497090  0.14521872     1.26300
O2144       O  0.70744216  0.83698261  0.16304368    -0.67600
O2145       O  0.59364794  0.82786379  0.16265177    -0.79900
C2146       C  0.64610115  0.88148087  0.11687075     0.83500
O2147       O  0.62105070  0.85005808  0.12108478    -0.67100
Ni2148     Ni  0.60126761  0.76621470  0.18856455     1.27400
Ni2149     Ni  0.66763856  0.79604340  0.15111519     1.26100
H2150       H  0.64770070  0.80451965  0.11614560     0.38100
O2151       O  0.69985855  0.57119064  0.29654527    -0.81900
O2152       O  0.82165160  0.66490663  0.36089286    -0.66600
O2153       O  0.75745519  0.62891164  0.31458887    -1.13200
C2154       C  0.83576596  0.61210239  0.27658622     1.05000
O2155       O  0.87078705  0.68712114  0.34026926    -0.79800
O2156       O  0.85009609  0.69459047  0.29690102    -0.67300
Ni2157     Ni  0.71056905  0.59398445  0.32489087     1.34900
C2158       C  0.83036633  0.68600057  0.28029023     0.83800
O2159       O  0.76484650  0.66349638  0.35271459    -0.80300
O2160       O  0.71327570  0.61359006  0.35400581    -0.90600
C2161       C  0.85428271  0.68202753  0.35918783     0.83300
O2162       O  0.72355325  0.56355709  0.33798460    -0.68800
O2163       O  0.85765363  0.64185835  0.28380701    -0.88100
C2164       C  0.74315181  0.57173428  0.35461776     0.84200
C2165       C  0.73430211  0.64368491  0.36110197     1.05700
H2166       H  0.81194773  0.61037564  0.33073207     0.37500
O2167       O  0.81309864  0.62965715  0.32203422    -1.10700
O2168       O  0.80500388  0.65445543  0.27882821    -0.67400
Ni2169     Ni  0.78111810  0.61166012  0.29879047     1.26300
O2170       O  0.76627295  0.60366833  0.35748029    -0.67600
O2171       O  0.80468087  0.59389992  0.28412466    -0.79900
C2172       C  0.71648243  0.57654888  0.27768298     0.83500
O2173       O  0.74901033  0.59404246  0.27587788    -0.67100
Ni2174     Ni  0.86038655  0.66321854  0.31218706     1.27400
Ni2175     Ni  0.78938812  0.64686338  0.33789036     1.26100
H2176       H  0.75820113  0.64785557  0.30579841     0.38100
C2177       C  0.77176466  0.97237147  0.50819605     0.79200
N2178       N  0.75069759  0.47211199  0.48761083    -0.79100
C2179       C  0.72090283  0.96836155  0.49625611     0.81700
N2180       N  0.70551498  0.95422787  0.51732130    -0.79000
C2181       C  0.72311979  0.94938490  0.53386854     0.81800
N2182       N  0.75588335  0.95815989  0.52903400    -0.80700
C2183       C  0.65229748  0.97043421  0.46478747     0.79200
N2184       N  0.66943250  0.96632058  0.48207215    -0.79100
C2185       C  0.70177603  0.97298204  0.47792190     0.81700
N2186       N  0.71677050  0.98409396  0.45652731    -0.79000
C2187       C  0.69961622  0.98789172  0.43927100     0.81800
N2188       N  0.66762700  0.98138594  0.44362550    -0.80700
C2189       C  0.68154183  0.71494514  0.53312063     0.79200
N2190       N  0.64987787  0.68531511  0.53255238    -0.79100
C2191       C  0.64010355  0.66635142  0.51408572     0.81700
N2192       N  0.66262869  0.67725053  0.49568821    -0.79000
C2193       C  0.69462635  0.70728742  0.49583209     0.81800
N2194       N  0.70394255  0.72630360  0.51459314    -0.80700
C2195       C  0.73124813  0.70920606  0.43890317     0.79200
N2196       N  0.70929640  0.69883439  0.45748470    -0.79100
C2197       C  0.71909983  0.71848198  0.47588021     0.81700
N2198       N  0.75130892  0.74834204  0.47557653    -0.79000
C2199       C  0.77372715  0.75821964  0.45710899     0.81800
N2200       N  0.76319881  0.73862720  0.43891971    -0.80700
C2201       C  0.97115313  0.72576151  0.53585672     0.79200
N2202       N  0.96098276  0.74855534  0.53779603    -0.79100
C2203       C  0.94710338  0.75660173  0.52039721     0.81700
N2204       N  0.94167170  0.74000670  0.50084105    -0.79000
C2205       C  0.95076000  0.71616954  0.49858771     0.81800
N2206       N  0.96623284  0.70959461  0.51604239    -0.80700
C2207       C  0.92567363  0.69140769  0.43941579     0.79200
N2208       N  0.93733041  0.67006944  0.43628317    -0.79100
C2209       C  0.95290941  0.66288452  0.45303598     0.81700
N2210       N  0.95657302  0.67734071  0.47338138    -0.79000
C2211       C  0.94542625  0.69926348  0.47674787     0.81800
N2212       N  0.92967437  0.70600170  0.45968338    -0.80700
O2213       O  0.89597677  0.91997759  0.44204341    -0.81900
O2214       O  0.48374779  0.52607280  0.51178166    -0.66600
O2215       O  0.95727525  0.97095462  0.46011419    -1.13200
C2216       C  0.94206008  0.88065417  0.51446448     1.05000
O2217       O  0.51650739  0.50666880  0.52338094    -0.79800
O2218       O  0.52139070  0.95946916  0.50478030    -0.67300
Ni2219     Ni  0.92570873  0.97050509  0.43952733     1.34900
C2220       C  0.52103162  0.95302971  0.48405951     0.83800
O2221       O  0.97729711  0.54172303  0.47134045    -0.80300
O2222       O  0.96003592  0.52426582  0.43645690    -0.90600
C2223       C  0.51176651  0.53160037  0.51940199     0.83300
O2224       O  0.89546271  0.97215157  0.46120824    -0.68800
O2225       O  0.95681940  0.90436445  0.52863706    -0.88100
C2226       C  0.89807870  0.98118830  0.48151007     0.84200
C2227       C  0.97111539  0.54736628  0.45111237     1.05700
H2228       H  0.93601168  0.94780633  0.51051344     0.37500
O2229       O  0.95762934  0.95624747  0.50228423    -1.10700
O2230       O  0.99353385  0.94021855  0.47045542    -0.67400
Ni2231     Ni  0.94641369  0.92859031  0.47701370     1.26300
O2232       O  0.92258733  0.48828054  0.49542508    -0.67600
O2233       O  0.93617145  0.88677098  0.49429166    -0.79900
C2234       C  0.90089519  0.89517552  0.44607958     0.83500
O2235       O  0.93030027  0.90157910  0.45125524    -0.67100
Ni2236     Ni  0.48945324  0.95797614  0.52618843     1.27400
Ni2237     Ni  0.96960691  0.50124053  0.48897160     1.26100
H2238       H  0.97823608  0.97944638  0.45095594     0.38100
C2239       C  0.76234764  0.86263719  0.77356867     0.79200
N2240       N  0.76349606  0.83339145  0.77403494    -0.79100
C2241       C  0.77275061  0.82245286  0.79277064     0.81700
N2242       N  0.78167854  0.84187909  0.81137867    -0.79000
C2243       C  0.78045675  0.87140889  0.81123064     0.81800
N2244       N  0.77043964  0.88144256  0.79227604    -0.80700
C2245       C  0.81126778  0.90460408  0.86815613     0.79200
N2246       N  0.80331149  0.88526827  0.84964932    -0.79100
C2247       C  0.78987618  0.89267509  0.83139637     0.81700
N2248       N  0.78534648  0.92010507  0.83171291    -0.79000
C2249       C  0.79406722  0.93996230  0.85005072     0.81800
N2250       N  0.80657061  0.93163181  0.86814285    -0.80700
C2251       C  0.59400946  0.94126534  0.78796813     0.79200
N2252       N  0.59155654  0.92279403  0.77003619    -0.79100
C2253       C  0.56684333  0.88816751  0.76999674     0.81700
N2254       N  0.54399633  0.87199031  0.78823082    -0.79000
C2255       C  0.54629840  0.89028614  0.80645371     0.81800
N2256       N  0.57133594  0.92496814  0.80621855    -0.80700
C2257       C  0.97182532  0.82224996  0.84358661     0.79200
N2258       N  0.97565535  0.84047916  0.86198917    -0.79100
C2259       C  0.00209667  0.87438665  0.86249061     0.81700
N2260       N  0.52657303  0.89043011  0.84539992    -0.79000
C2261       C  0.52264759  0.87250949  0.82664871     0.81800
N2262       N  0.99424907  0.83852411  0.82512537    -0.80700
C2263       C  0.58378607  0.63389804  0.85299974     0.79200
N2264       N  0.57196311  0.63878814  0.83292939    -0.79100
C2265       C  0.53859254  0.62997472  0.83194678     0.81700
N2266       N  0.51709339  0.61545936  0.85093219    -0.79000
C2267       C  0.52851600  0.61008023  0.87080768     0.81800
N2268       N  0.56174163  0.61957833  0.87157495    -0.80700
C2269       C  0.97980610  0.63027741  0.78844781     0.79200
N2270       N  0.00155986  0.64536381  0.76982410    -0.79100
C2271       C  0.53314850  0.65669440  0.77206765     0.81700
N2272       N  0.54580952  0.65063029  0.79125287    -0.79000
C2273       C  0.52503284  0.63554689  0.81062409     0.81800
N2274       N  0.99154924  0.62447036  0.80808423    -0.80700
O2275       O  0.80911302  0.70490240  0.78379252    -0.81900
O2276       O  0.80495155  0.58978299  0.84968774    -0.66600
O2277       O  0.79144181  0.63692708  0.79992300    -1.13200
C2278       C  0.70841556  0.63287387  0.85186637     1.05000
O2279       O  0.74881720  0.55321095  0.85669868    -0.79800
O2280       O  0.70168998  0.56135699  0.83733147    -0.67300
Ni2281     Ni  0.82841827  0.67613413  0.78227798     1.34900
C2282       C  0.70018957  0.56906044  0.81662427     0.83800
O2283       O  0.83283303  0.60981941  0.80787914    -0.80300
O2284       O  0.85280353  0.65254959  0.77970999    -0.90600
C2285       C  0.77897796  0.55890502  0.85396133     0.83300
O2286       O  0.85455887  0.69942824  0.80712884    -0.68800
O2287       O  0.71132227  0.61115735  0.86485624    -0.88100
C2288       C  0.85722444  0.68963701  0.82704557     0.84200
C2289       C  0.85394298  0.62856792  0.79129282     1.05700
H2290       H  0.78170006  0.64016337  0.85153637     0.37500
O2291       O  0.76882511  0.62177596  0.84143789    -1.10700
O2292       O  0.72172583  0.59867497  0.80610651    -0.67400
Ni2293     Ni  0.75906356  0.64259559  0.81656676     1.26300
O2294       O  0.83856694  0.65817980  0.83579887    -0.67600
O2295       O  0.72651380  0.64725265  0.83342447    -0.79900
C2296       C  0.77862218  0.69812033  0.78649601     0.83500
O2297       O  0.75338067  0.66715273  0.79184115    -0.67100
Ni2298     Ni  0.73235976  0.58433609  0.86041417     1.27400
Ni2299     Ni  0.80057711  0.61517341  0.82483093     1.26100
H2300       H  0.77912034  0.61912102  0.78931636     0.38100
O2301       O  0.90841395  0.50072764  0.00663652    -0.81900
O2302       O  0.98244186  0.95442599  0.93989605    -0.66600
O2303       O  0.93427708  0.96419964  0.98856744    -1.13200
C2304       C  0.53644182  0.01399645  0.02583318     1.05000
O2305       O  0.01094418  0.93791797  0.96136258    -0.79800
O2306       O  0.99188754  0.92935212  0.00702606    -0.67300
Ni2307     Ni  0.89735335  0.47235127  0.98068789     1.34900
C2308       C  0.97406266  0.93083008  0.02309811     0.83800
O2309       O  0.91676866  0.92919124  0.94827445    -0.80300
O2310       O  0.88791422  0.95481252  0.95497522    -0.90600
C2311       C  0.00025180  0.94113009  0.94215201     0.83300
O2312       O  0.93225634  0.51198929  0.96205842    -0.68800
O2313       O  0.54150615  0.99363503  0.01456126    -0.88100
C2314       C  0.95201273  0.51228018  0.94662910     0.84200
C2315       C  0.89273712  0.93406330  0.94410342     1.05700
H2316       H  0.51370126  0.01076891  0.97415955     0.37500
O2317       O  0.99829367  0.98740350  0.97949079    -1.10700
O2318       O  0.96780855  0.95487688  0.02350837    -0.67400
Ni2319     Ni  0.97549379  0.99402415  0.00396375     1.26300
O2320       O  0.96569432  0.99898849  0.94542959    -0.67600
O2321       O  0.51182140  0.01855241  0.02237083    -0.79900
C2322       C  0.92421858  0.50380454  0.02474595     0.83500
O2323       O  0.94478128  0.49371324  0.02688242    -0.67100
Ni2324     Ni  0.02553780  0.96795031  0.98671266     1.27400
Ni2325     Ni  0.95764146  0.95865174  0.96375829     1.26100
H2326       H  0.92020421  0.94187832  0.99717155     0.38100
O2327       O  0.54080213  0.74116798  0.63286234    -0.81900
O2328       O  0.66546048  0.83846800  0.69388013    -0.66600
O2329       O  0.59937925  0.80108640  0.64862649    -1.13200
C2330       C  0.67555705  0.78254015  0.60971435     1.05000
O2331       O  0.71348258  0.85984254  0.67238348    -0.79800
O2332       O  0.68939205  0.86489691  0.63087787    -0.67300
Ni2333     Ni  0.55248198  0.76801685  0.65959706     1.34900
C2334       C  0.66954283  0.85667261  0.61441705     0.83800
O2335       O  0.61018852  0.83922200  0.68553131    -0.80300
O2336       O  0.55660906  0.79197326  0.68697006    -0.90600
C2337       C  0.69795127  0.85599568  0.69145472     0.83300
O2338       O  0.56313213  0.73750639  0.67560821    -0.68800
O2339       O  0.69765351  0.81241237  0.61671895    -0.88100
C2340       C  0.58443066  0.74664786  0.69125439     0.84200
C2341       C  0.57921837  0.82218377  0.69325258     1.05700
H2342       H  0.65340374  0.78180498  0.66469143     0.37500
O2343       O  0.65452458  0.80081452  0.65563726    -1.10700
O2344       O  0.64512307  0.82497936  0.61233863    -0.67400
Ni2345     Ni  0.62155496  0.78254317  0.63261030     1.26300
O2346       O  0.60939925  0.77840965  0.69222011    -0.67600
O2347       O  0.64459583  0.76428193  0.61766321    -0.79900
C2348       C  0.55521236  0.74690441  0.61309072     0.83500
O2349       O  0.58784961  0.76455447  0.61004729    -0.67100
Ni2350     Ni  0.70149031  0.83446097  0.64498042     1.27400
Ni2351     Ni  0.63246252  0.81993382  0.67128958     1.26100
H2352       H  0.60030079  0.82005016  0.63959265     0.38100
C2353       C  0.94689914  0.62847892  0.78835107    -0.07100
C2354       C  0.91524450  0.59631911  0.79240052    -0.18200
C2355       C  0.88384491  0.59473119  0.79199737     0.10100
C2356       C  0.88432224  0.62595296  0.78727292    -0.07000
C2357       C  0.91614751  0.65773830  0.78264844    -0.18300
C2358       C  0.94724209  0.65943328  0.78343187     0.10100
S2359       S  0.84353199  0.55282848  0.79692738    -0.33200
S2360       S  0.98741349  0.70191919  0.78005209    -0.33200
H2361       H  0.97327463  0.72143812  0.77296669     0.28100
H2362       H  0.85781417  0.53377777  0.80481019     0.28100
H2363       H  0.91519368  0.57259105  0.79575585     0.18700
H2364       H  0.91683116  0.68190366  0.77991830     0.18700
C2365       C  0.55501088  0.67672949  0.75137390    -0.07100
C2366       C  0.54268557  0.66284633  0.73033726    -0.18200
C2367       C  0.55451143  0.68416083  0.70995613     0.10100
C2368       C  0.57829178  0.72082546  0.71051907    -0.07000
C2369       C  0.59295469  0.73396815  0.73137709    -0.18300
C2370       C  0.58166680  0.71244568  0.75164708     0.10100
S2371       S  0.53735646  0.66294049  0.68406764    -0.33200
S2372       S  0.59839407  0.73324581  0.77769192    -0.33200
H2373       H  0.60457310  0.70769829  0.78612556     0.28100
H2374       H  0.56835085  0.68477643  0.67091351     0.28100
H2375       H  0.52226513  0.63540391  0.72992479     0.18700
H2376       H  0.61158089  0.76181143  0.73235134     0.18700
C2377       C  0.61876271  0.63964650  0.85482072    -0.07100
C2378       C  0.62314760  0.61980259  0.87206112    -0.18200
C2379       C  0.65367901  0.62027494  0.87345109     0.10100
C2380       C  0.68060760  0.63981233  0.85654671    -0.07000
C2381       C  0.67739557  0.66225155  0.84066966    -0.18300
C2382       C  0.64739605  0.66294163  0.83994314     0.10100
S2383       S  0.65558274  0.59425550  0.89680112    -0.33200
S2384       S  0.64777067  0.69443659  0.81982861    -0.33200
H2385       H  0.62819233  0.70188202  0.83423032     0.28100
H2386       H  0.68958070  0.62032417  0.90154343     0.28100
H2387       H  0.60219652  0.60275485  0.88440149     0.18700
H2388       H  0.69791325  0.67866201  0.82797530     0.18700
C2389       C  0.50520351  0.59094946  0.89122725    -0.07100
C2390       C  0.51989012  0.59842083  0.91261690    -0.18200
C2391       C  0.50291456  0.57579552  0.93200649     0.10100
C2392       C  0.47030503  0.54499344  0.93008055    -0.07000
C2393       C  0.95247191  0.53300905  0.90715598    -0.18300
C2394       C  0.47119077  0.56148824  0.88991375     0.10100
S2395       S  0.52570350  0.58619268  0.95798077    -0.33200
S2396       S  0.94788756  0.54326518  0.86148358    -0.33200
H2397       H  0.94914671  0.57478974  0.85731837     0.28100
H2398       H  0.49723475  0.56431526  0.97313296     0.28100
H2399       H  0.54576573  0.62107923  0.91400330     0.18700
H2400       H  0.92839912  0.50819483  0.90542202     0.18700
C2401       C  0.94314008  0.78509127  0.84383794    -0.07100
C2402       C  0.91024233  0.77555076  0.85225536    -0.18200
C2403       C  0.88139957  0.74171015  0.85019681     0.10100
C2404       C  0.88540276  0.71706665  0.83931691    -0.07000
C2405       C  0.91858100  0.72557100  0.83289987    -0.18300
C2406       C  0.94748626  0.75904785  0.83540518     0.10100
S2407       S  0.83972316  0.73215004  0.85989398    -0.33200
S2408       S  0.98901555  0.76675600  0.82746292    -0.33200
H2409       H  0.00694613  0.79093246  0.84388397     0.28100
H2410       H  0.82548224  0.69605548  0.86458462     0.28100
H2411       H  0.90668353  0.79498465  0.85945692     0.18700
H2412       H  0.92176694  0.70671294  0.82445139     0.18700
C2413       C  0.00647540  0.89307821  0.88317942    -0.07100
C2414       C  0.01344132  0.92726926  0.88092140    -0.18200
C2415       C  0.01343423  0.94438986  0.90007819     0.10100
C2416       C  0.00621341  0.92681822  0.92195848    -0.07000
C2417       C  0.00132296  0.89352675  0.92427016    -0.18300
C2418       C  0.50114014  0.87707309  0.90682143     0.10100
S2419       S  0.02293074  0.98869846  0.89641076    -0.33200
S2420       S  0.49264653  0.83368012  0.91312810    -0.33200
H2421       H  0.51642837  0.83693494  0.89631140     0.28100
H2422       H  0.02714088  0.99233641  0.87252907     0.28100
H2423       H  0.01767589  0.94003868  0.86407461     0.18700
H2424       H  0.49383358  0.88170961  0.94214263     0.18700
C2425       C  0.61766436  0.47418462  0.79366739    -0.07100
C2426       C  0.61089079  0.49382769  0.80798413    -0.18200
C2427       C  0.63730403  0.52673351  0.81408651     0.10100
C2428       C  0.67117237  0.54112998  0.80505689    -0.07000
C2429       C  0.67767393  0.52317165  0.78918204    -0.18300
C2430       C  0.65142473  0.48945649  0.78363387     0.10100
S2431       S  0.62813128  0.54898176  0.83493436    -0.33200
S2432       S  0.66266698  0.46516005  0.76600199    -0.33200
H2433       H  0.70434658  0.98364222  0.77222668     0.28100
H2434       H  0.59198013  0.52654851  0.83564545     0.28100
H2435       H  0.58511173  0.48243874  0.81550403     0.18700
H2436       H  0.70396433  0.53425533  0.78277863     0.18700
C2437       C  0.56590876  0.86908300  0.75007153    -0.07100
C2438       C  0.57978638  0.88870001  0.72907765    -0.18200
C2439       C  0.58219205  0.87339810  0.70983090     0.10100
C2440       C  0.57029414  0.83744846  0.71130363    -0.07000
C2441       C  0.55488347  0.81726308  0.73181625    -0.18300
C2442       C  0.55341637  0.83281744  0.75133828     0.10100
S2443       S  0.60111101  0.90125053  0.68392162    -0.33200
S2444       S  0.53929193  0.80577438  0.77758242    -0.33200
H2445       H  0.56748589  0.83059447  0.78949424     0.28100
H2446       H  0.58147464  0.87464807  0.66921605     0.28100
H2447       H  0.58928814  0.91643628  0.72760271     0.18700
H2448       H  0.54663247  0.78983987  0.73314332     0.18700
C2449       C  0.78965963  0.97020825  0.85078360    -0.07100
C2450       C  0.76754637  0.47351441  0.83666623    -0.18200
C2451       C  0.76316411  0.50169271  0.83777428     0.10100
C2452       C  0.78296490  0.52866238  0.85243775    -0.07000
C2453       C  0.80792840  0.52740482  0.86486555    -0.18300
C2454       C  0.81270054  0.49933051  0.86365749     0.10100
S2455       S  0.73285078  0.50240663  0.81919226    -0.33200
S2456       S  0.84661853  0.50068676  0.87958123    -0.33200
H2457       H  0.87222358  0.04642723  0.86979635     0.28100
H2458       H  0.75308029  0.53883864  0.81357838     0.28100
H2459       H  0.74053304  0.94247915  0.83555741     0.18700
H2460       H  0.82361337  0.54851393  0.87563125     0.18700
C2461       C  0.82713199  0.89886825  0.88799414    -0.07100
C2462       C  0.86068157  0.90617681  0.88511367    -0.18200
C2463       C  0.88203355  0.91467996  0.90357557     0.10100
C2464       C  0.86960044  0.91610585  0.92542934    -0.07000
C2465       C  0.83486931  0.90519999  0.92851482    -0.18300
C2466       C  0.81353477  0.89626562  0.91016638     0.10100
S2467       S  0.91973869  0.42029391  0.89714438    -0.33200
S2468       S  0.76981910  0.88442865  0.91578142    -0.33200
H2469       H  0.75660256  0.86541854  0.89636940     0.28100
H2470       H  0.91762976  0.39504493  0.91315149     0.28100
H2471       H  0.87141186  0.90854884  0.86811023     0.18700
H2472       H  0.82471526  0.90540762  0.94519053     0.18700
C2473       C  0.77399085  0.72800162  0.78695092    -0.07100
C2474       C  0.76491271  0.73495669  0.80799155    -0.18200
C2475       C  0.76432363  0.76525262  0.81065814     0.10100
C2476       C  0.77357382  0.78996643  0.79187661    -0.07000
C2477       C  0.78288670  0.78291546  0.77083970    -0.18300
C2478       C  0.78346147  0.75262417  0.76823914     0.10100
S2479       S  0.75118446  0.77030689  0.83838606    -0.33200
S2480       S  0.79726985  0.74740164  0.74073607    -0.33200
H2481       H  0.77952920  0.71057564  0.74294491     0.28100
H2482       H  0.73022326  0.78177138  0.83005424     0.28100
H2483       H  0.75918412  0.71707044  0.82273497     0.18700
H2484       H  0.79027380  0.80147052  0.75621550     0.18700
C2485       C  0.71867687  0.86952632  0.71196234    -0.07100
C2486       C  0.75150355  0.87441137  0.71135317    -0.18200
C2487       C  0.76802765  0.87592296  0.73131248     0.10100
C2488       C  0.75179777  0.87281910  0.75260078    -0.07000
C2489       C  0.72130378  0.87267444  0.75323469    -0.18300
C2490       C  0.70474619  0.87143237  0.73316245     0.10100
S2491       S  0.80870073  0.87915496  0.72857255    -0.33200
S2492       S  0.66547389  0.87098717  0.73602767    -0.33200
H2493       H  0.67027288  0.88899730  0.71475159     0.28100
H2494       H  0.82117372  0.89500805  0.74911378     0.28100
H2495       H  0.76335519  0.87423030  0.69537256     0.18700
H2496       H  0.70910578  0.87115773  0.76951718     0.18700
C2497       C  0.97341397  0.58115522  0.44593554    -0.07100
C2498       C  0.99392200  0.60912693  0.45952631    -0.18200
C2499       C  0.98943622  0.63708484  0.46122238     0.10100
C2500       C  0.96325601  0.63738061  0.44931495    -0.07000
C2501       C  0.94501962  0.61130710  0.43394821    -0.18300
C2502       C  0.94982764  0.58341296  0.43198561     0.10100
S2503       S  0.52198742  0.67006319  0.47625126    -0.33200
S2504       S  0.92323281  0.54966411  0.41310742    -0.33200
H2505       H  0.90745044  0.56601375  0.40312337     0.28100
H2506       H  0.52817242  0.69822853  0.46123785     0.28100
H2507       H  0.51311681  0.60597198  0.46718246     0.18700
H2508       H  0.92541107  0.61162414  0.42431352     0.18700
C2509       C  0.94220071  0.78636430  0.52188767    -0.07100
C2510       C  0.91481679  0.78553467  0.51105666    -0.18200
C2511       C  0.91141824  0.81468239  0.51049517     0.10100
C2512       C  0.93621508  0.84554212  0.52059564    -0.07000
C2513       C  0.96151114  0.84499784  0.53308871    -0.18300
C2514       C  0.96529597  0.81647947  0.53347302     0.10100
S2515       S  0.37804476  0.81178674  0.50437514    -0.33200
S2516       S  0.00303493  0.82274181  0.54674073    -0.33200
H2517       H  0.01404009  0.81253105  0.52796511     0.28100
H2518       H  0.36007628  0.77537126  0.50215063     0.28100
H2519       H  0.89639852  0.76223273  0.50279910     0.18700
H2520       H  0.98088724  0.86845827  0.54082044     0.18700
C2521       C  0.98976818  0.72194734  0.55513147    -0.07100
C2522       C  0.97620906  0.71890496  0.57726554    -0.18200
C2523       C  0.49759261  0.72137473  0.59361352     0.10100
C2524       C  0.53336646  0.73394311  0.59270092    -0.07000
C2525       C  0.54961370  0.73835297  0.57111148    -0.18300
C2526       C  0.53226957  0.73393589  0.55081073     0.10100
S2527       S  0.47289954  0.71230094  0.62014101    -0.33200
S2528       S  0.55518024  0.74287238  0.52363956    -0.33200
H2529       H  0.58804224  0.75608609  0.53209452     0.28100
H2530       H  0.44014837  0.69692203  0.61110701     0.28100
H2531       H  0.95054661  0.71399066  0.57934325     0.18700
H2532       H  0.57656570  0.74700327  0.57002305     0.18700
C2533       C  0.86975174  0.85924820  0.44991414    -0.07100
C2534       C  0.86773080  0.83056933  0.44031568    -0.18200
C2535       C  0.83724283  0.79677917  0.44317077     0.10100
C2536       C  0.80799483  0.79185187  0.45556360    -0.07000
C2537       C  0.81079478  0.82040334  0.46572105    -0.18300
C2538       C  0.84125967  0.85347033  0.46352097     0.10100
S2539       S  0.83674249  0.76014122  0.43189487    -0.33200
S2540       S  0.84251218  0.88679702  0.47968801    -0.33200
H2541       H  0.87663180  0.90115082  0.48611334     0.28100
H2542       H  0.87133598  0.77887859  0.42351008     0.28100
H2543       H  0.88987627  0.83474298  0.43052120     0.18700
H2544       H  0.78897193  0.81702537  0.47552459     0.18700
C2545       C  0.54190058  0.56784302  0.51989785    -0.07100
C2546       C  0.55181632  0.58984722  0.49986287    -0.18200
C2547       C  0.58307335  0.62252032  0.49755898     0.10100
C2548       C  0.60603446  0.63289671  0.51531693    -0.07000
C2549       C  0.59604753  0.61091626  0.53544365    -0.18300
C2550       C  0.56434109  0.57876338  0.53797116     0.10100
S2551       S  0.59184918  0.64986230  0.47184802    -0.33200
S2552       S  0.55447472  0.55263666  0.56445237    -0.33200
H2553       H  0.51841959  0.53484727  0.56360947     0.28100
H2554       H  0.60726303  0.68143403  0.48277668     0.28100
H2555       H  0.53581119  0.58070565  0.48550082     0.18700
H2556       H  0.61333872  0.61861694  0.54927796     0.18700
C2557       C  0.68526213  0.76867675  0.59102522    -0.07100
C2558       C  0.67608947  0.73380355  0.59382877    -0.18200
C2559       C  0.67839864  0.71668949  0.57556041     0.10100
C2560       C  0.68981994  0.73466410  0.55372456    -0.07000
C2561       C  0.70221956  0.77058823  0.55137755    -0.18300
C2562       C  0.69957538  0.78765561  0.56974618     0.10100
S2563       S  0.66460523  0.67130383  0.58111093    -0.33200
S2564       S  0.71048229  0.83202090  0.56424987    -0.33200
H2565       H  0.67899924  0.82481887  0.57383854     0.28100
H2566       H  0.68474798  0.67084198  0.56310772     0.28100
H2567       H  0.66569609  0.71931138  0.61022931     0.18700
H2568       H  0.71070994  0.78449691  0.53470354     0.18700
C2569       C  0.61798753  0.96511073  0.46874151    -0.07100
C2570       C  0.61669504  0.99409324  0.47426722    -0.18200
C2571       C  0.58520794  0.99165272  0.47689329     0.10100
C2572       C  0.55388864  0.95928314  0.47440100    -0.07000
C2573       C  0.55520417  0.93074180  0.46769908    -0.18300
C2574       C  0.58688930  0.93337737  0.46463660     0.10100
S2575       S  0.58659626  0.03076618  0.48373860    -0.33200
S2576       S  0.58549885  0.89514458  0.45566701    -0.33200
H2577       H  0.61911945  0.90505605  0.46064760     0.28100
H2578       H  0.55470149  0.02116020  0.47492325     0.28100
H2579       H  0.64048495  0.01896514  0.47640538     0.18700
H2580       H  0.53137411  0.90573587  0.46597621     0.18700
C2581       C  0.86900494  0.98279279  0.49120632    -0.07100
C2582       C  0.85769089  0.50139457  0.47648453    -0.18200
C2583       C  0.82671963  0.49917956  0.48131415     0.10100
C2584       C  0.80699868  0.97927082  0.50310794    -0.07000
C2585       C  0.81812238  0.96080555  0.51650694    -0.18300
C2586       C  0.84907080  0.96297031  0.51107857     0.10100
S2587       S  0.81807104  0.52686377  0.46357738    -0.33200
S2588       S  0.86033643  0.93784226  0.52916969    -0.33200
H2589       H  0.89474208  0.96562800  0.53074871     0.28100
H2590       H  0.80521460  0.53630645  0.48176059     0.28100
H2591       H  0.87375303  0.51771815  0.46170903     0.18700
H2592       H  0.80221368  0.94373566  0.53107767     0.18700
C2593       C  0.67812496  0.88413747  0.59574146    -0.07100
C2594       C  0.71055230  0.91579676  0.59555667    -0.18200
C2595       C  0.72450543  0.93913951  0.57625995     0.10100
C2596       C  0.70598895  0.93101942  0.55625179    -0.07000
C2597       C  0.67201331  0.90159886  0.55709919    -0.18300
C2598       C  0.65776526  0.87805625  0.57657433     0.10100
S2599       S  0.76662210  0.97843294  0.57818109    -0.33200
S2600       S  0.61399868  0.84045830  0.57617482    -0.33200
H2601       H  0.61124810  0.84169605  0.55245004     0.28100
H2602       H  0.76081381  0.99932635  0.56286627     0.28100
H2603       H  0.72625816  0.92181191  0.61017999     0.18700
H2604       H  0.65729778  0.89592489  0.54201508     0.18700
C2605       C  0.87332574  0.69365215  0.38062069    -0.07100
C2606       C  0.85463521  0.67769162  0.40159604    -0.18200
C2607       C  0.87132232  0.67880255  0.42156658     0.10100
C2608       C  0.90754245  0.69688013  0.42084720    -0.07000
C2609       C  0.92638578  0.71586689  0.40065432    -0.18300
C2610       C  0.90977321  0.71532529  0.38079318     0.10100
S2611       S  0.84616889  0.65399142  0.44726700    -0.33200
S2612       S  0.93662512  0.74288528  0.35642954    -0.33200
H2613       H  0.91276006  0.75099468  0.34883623     0.28100
H2614       H  0.81355468  0.64254387  0.43894664     0.28100
H2615       H  0.82674820  0.66201621  0.40209058     0.18700
H2616       H  0.95431679  0.73049504  0.40019856     0.18700
C2617       C  0.72414748  0.65599432  0.38038338    -0.07100
C2618       C  0.73092831  0.69003288  0.37793735    -0.18200
C2619       C  0.72943855  0.70666099  0.39671978     0.10100
C2620       C  0.72151603  0.68911753  0.41858139    -0.07000
C2621       C  0.71118646  0.65376185  0.42079621    -0.18300
C2622       C  0.71275665  0.63707066  0.40187962     0.10100
S2623       S  0.73991902  0.75106710  0.39184330    -0.33200
S2624       S  0.70433847  0.59353384  0.40668944    -0.33200
H2625       H  0.73625928  0.60291113  0.39655757     0.28100
H2626       H  0.72114670  0.75022110  0.41120903     0.28100
H2627       H  0.73904406  0.70439198  0.36138746     0.18700
H2628       H  0.70520876  0.64023985  0.43755812     0.18700
C2629       C  0.73571794  0.54402088  0.37280579    -0.07100
C2630       C  0.70348704  0.51204541  0.37347424    -0.18200
C2631       C  0.69807005  0.99324856  0.39655053     0.10100
C2632       C  0.71675983  0.00299489  0.41647958    -0.07000
C2633       C  0.74348284  0.52792786  0.41134426    -0.18300
C2634       C  0.75690087  0.55045398  0.39154926     0.10100
S2635       S  0.65566036  0.95391611  0.39567221    -0.33200
S2636       S  0.80073964  0.58731254  0.39194186    -0.33200
H2637       H  0.80871483  0.58613607  0.36901771     0.28100
H2638       H  0.66033521  0.93471948  0.41311370     0.28100
H2639       H  0.68720477  0.50561314  0.35913078     0.18700
H2640       H  0.75892978  0.53478000  0.42615112     0.18700
C2641       C  0.81420987  0.80920787  0.11732853    -0.07100
C2642       C  0.81072216  0.83066800  0.10086314    -0.18200
C2643       C  0.77985075  0.82939302  0.09882667     0.10100
C2644       C  0.75146085  0.80720900  0.11431371    -0.07000
C2645       C  0.75423554  0.78398803  0.12967179    -0.18300
C2646       C  0.78469935  0.78424476  0.13104520     0.10100
S2647       S  0.77914700  0.85748335  0.07637408    -0.33200
S2648       S  0.78381209  0.75189629  0.15062098    -0.33200
H2649       H  0.80354919  0.74500924  0.13594652     0.28100
H2650       H  0.74503049  0.83272999  0.07103777     0.28100
H2651       H  0.83253657  0.84941109  0.08958923     0.18700
H2652       H  0.73300722  0.76628081  0.14157844     0.18700
C2653       C  0.96160889  0.90550912  0.04332217    -0.07100
C2654       C  0.97019035  0.91932573  0.06477763    -0.18200
C2655       C  0.95452558  0.89808391  0.08489102     0.10100
C2656       C  0.92981904  0.86191275  0.08375622    -0.07000
C2657       C  0.92285761  0.84766222  0.06235090    -0.18300
C2658       C  0.93878406  0.86905035  0.04211917     0.10100
S2659       S  0.96477741  0.91928037  0.11126439    -0.33200
S2660       S  0.92775078  0.85023297  0.01489710    -0.33200
H2661       H  0.90381255  0.81545410  0.02338128     0.28100
H2662       H  0.93031103  0.90270950  0.11958347     0.28100
H2663       H  0.98796103  0.94735297  0.06582027     0.18700
H2664       H  0.90351926  0.82000017  0.06147611     0.18700
C2665       C  0.54800417  0.81850822  0.18708293    -0.07100
C2666       C  0.54556489  0.84362111  0.17351359    -0.18200
C2667       C  0.01241814  0.84301972  0.17191894     0.10100
C2668       C  0.98409039  0.81917998  0.18692319    -0.07000
C2669       C  0.98933282  0.79986989  0.20405970    -0.18300
C2670       C  0.51931197  0.79419017  0.20179850     0.10100
S2671       S  0.01171677  0.87380199  0.15170587    -0.33200
S2672       S  0.51903017  0.76047758  0.21984028    -0.33200
H2673       H  0.48337680  0.73976259  0.22548721     0.28100
H2674       H  0.99233646  0.88114710  0.16637605     0.28100
H2675       H  0.56727801  0.86289630  0.16234302     0.18700
H2676       H  0.96868221  0.78289817  0.21654236     0.18700
C2677       C  0.86701278  0.75679441  0.21965026    -0.07100
C2678       C  0.87491173  0.77042025  0.24119070    -0.18200
C2679       C  0.86150401  0.74863818  0.26138766     0.10100
C2680       C  0.83934363  0.71182191  0.26034609    -0.01000
C2681       C  0.82970625  0.69851867  0.23871204    -0.18300
C2682       C  0.84361738  0.72030198  0.21854503     0.10100
S2683       S  0.87531551  0.76956762  0.28773668    -0.33200
S2684       S  0.83501439  0.69920177  0.19219528    -0.33200
H2685       H  0.83024162  0.72362282  0.18011758     0.28100
H2686       H  0.84343831  0.74677474  0.29971684     0.28100
H2687       H  0.89345669  0.79827131  0.24228820     0.18700
H2688       H  0.81334219  0.67042760  0.23729917     0.18700
C2689       C  0.80669646  0.96313080  0.18006719    -0.07100
C2690       C  0.81385884  0.94213797  0.16750820    -0.18200
C2691       C  0.78756386  0.90841279  0.16243313     0.10100
C2692       C  0.75326623  0.89535120  0.16987884    -0.07000
C2693       C  0.74637966  0.91491287  0.18412261    -0.18300
C2694       C  0.77276941  0.94870431  0.18945371     0.10100
S2695       S  0.79739702  0.88354123  0.14443744    -0.33200
S2696       S  0.76179682  0.97426692  0.20592518    -0.33200
H2697       H  0.72630690  0.94876853  0.20937084     0.28100
H2698       H  0.83350862  0.90637917  0.14370960     0.28100
H2699       H  0.83991509  0.95291331  0.16071357     0.18700
H2700       H  0.71983005  0.90496579  0.18930640     0.18700
C2701       C  0.85670343  0.57103482  0.21910536    -0.07100
C2702       C  0.84278489  0.55045617  0.23978936    -0.18200
C2703       C  0.83691825  0.56361916  0.25894870     0.10100
C2704       C  0.84602999  0.59871466  0.25796338    -0.07000
C2705       C  0.86140277  0.62007868  0.23779767    -0.18300
C2706       C  0.86624199  0.60652142  0.21816507     0.10100
S2707       S  0.81824230  0.02879165  0.28619957    -0.33200
S2708       S  0.88157060  0.63406288  0.19192536    -0.33200
H2709       H  0.88006243  0.66203899  0.19973153     0.28100
H2710       H  0.83396712  0.55949852  0.29968802     0.28100
H2711       H  0.83514848  0.01791948  0.24266022     0.18700
H2712       H  0.86769038  0.64684099  0.23710083     0.18700
C2713       C  0.97550119  0.65929906  0.12336997    -0.07100
C2714       C  0.00824156  0.66553578  0.11805742    -0.18200
C2715       C  0.54195087  0.69913791  0.12218388     0.10100
C2716       C  0.53897229  0.72419760  0.13348535    -0.07000
C2717       C  0.50606449  0.71713086  0.13938210    -0.18300
C2718       C  0.97298410  0.68627586  0.13218762     0.10100
S2719       S  0.58277209  0.70443983  0.11466798    -0.33200
S2720       S  0.93227867  0.68160897  0.13871807    -0.33200
H2721       H  0.91349053  0.65676300  0.12283742     0.28100
H2722       H  0.60444569  0.74032703  0.11769570     0.28100
H2723       H  0.01040646  0.64481984  0.11155276     0.18700
H2724       H  0.50366939  0.73610814  0.14832057     0.18700
C2725       C  0.91497291  0.55148651  0.08342369    -0.07100
C2726       C  0.91565902  0.56569210  0.06152491    -0.18200
C2727       C  0.91813668  0.55054821  0.04202194     0.10100
C2728       C  0.91913637  0.51994284  0.04437105    -0.07000
C2729       C  0.91791177  0.50550160  0.06631007    -0.18300
C2730       C  0.91619074  0.52105611  0.08580905     0.10100
S2731       S  0.92287729  0.57316636  0.01481662    -0.33200
S2732       S  0.91864446  0.50358353  0.11348081    -0.33200
H2733       H  0.92161626  0.47634279  0.10592156     0.28100
H2734       H  0.94897082  0.56911491  0.00594362     0.28100
H2735       H  0.91552951  0.58952053  0.05960962     0.18700
H2736       H  0.91917360  0.48233736  0.06812993     0.18700
C2737       C  0.64731887  0.64485099  0.17344683    -0.07100
C2738       C  0.62990504  0.64733991  0.19234511    -0.18200
C2739       C  0.62929876  0.67746690  0.19518334     0.10100
C2740       C  0.64623548  0.70604337  0.17865579    -0.07000
C2741       C  0.66280833  0.70315320  0.15942824    -0.18300
C2742       C  0.66406089  0.67329387  0.15681094     0.10100
S2743       S  0.60720190  0.67800153  0.22053952    -0.33200
S2744       S  0.68853136  0.67384916  0.13242661    -0.33200
H2745       H  0.70279766  0.65718508  0.14412539     0.28100
H2746       H  0.62942710  0.71416925  0.22301679     0.28100
H2747       H  0.61705418  0.62572976  0.20528019     0.18700
H2748       H  0.67457007  0.72419229  0.14616090     0.18700
C2749       C  0.69726174  0.56483565  0.25660156    -0.07100
C2750       C  0.66521673  0.56161542  0.25611446    -0.18200
C2751       C  0.65021781  0.56064674  0.23557922     0.10100
C2752       C  0.66744583  0.56291965  0.21492569    -0.07000
C2753       C  0.69715324  0.56173290  0.21540190    -0.18300
C2754       C  0.71226444  0.56253310  0.23605181     0.10100
S2755       S  0.61252839  0.05075467  0.24627375    -0.33200
S2756       S  0.75129508  0.56209874  0.23556666    -0.33200
H2757       H  0.75029784  0.55343594  0.21288052     0.28100
H2758       H  0.59936780  0.03481018  0.22585297     0.28100
H2759       H  0.65283651  0.56242979  0.27165410     0.18700
H2760       H  0.70999295  0.56300027  0.19948008     0.18700
C2761       C  0.62768246  0.96505273  0.12176580    -0.07100
C2762       C  0.65603338  0.96719019  0.13180969    -0.18200
C2763       C  0.66234398  0.94038931  0.13051766     0.10100
C2764       C  0.64033185  0.91059753  0.11835178    -0.07000
C2765       C  0.61135054  0.90783719  0.10883321    -0.18300
C2766       C  0.60472920  0.93462055  0.11036450     0.10100
S2767       S  0.69786420  0.94509822  0.14602163    -0.33200
S2768       S  0.56605194  0.92863946  0.09860381    -0.33200
H2769       H  0.55381981  0.89571201  0.09005028     0.28100
H2770       H  0.67969547  0.90998139  0.15505391     0.28100
H2771       H  0.67354213  0.99001846  0.14083498     0.18700
H2772       H  0.59391905  0.88460261  0.10016334     0.18700
C2773       C  0.59482680  0.04105022  0.08519046    -0.07100
C2774       C  0.61117178  0.53872440  0.05807201    -0.18200
C2775       C  0.59356243  0.53495079  0.03829630     0.10100
C2776       C  0.55891611  0.03063393  0.04498459    -0.07000
C2777       C  0.54337494  0.02874293  0.06620148    -0.18300
C2778       C  0.56105561  0.03407322  0.08625386     0.10100
S2779       S  0.61495365  0.53769957  0.01161812    -0.33200
S2780       S  0.53760639  0.02653431  0.11289130    -0.33200
H2781       H  0.56486036  0.05628137  0.12229544     0.28100
H2782       H  0.59643519  0.54787851  0.99818158     0.28100
H2783       H  0.63609635  0.54164403  0.05684622     0.18700
H2784       H  0.51641757  0.02019792  0.06743437     0.18700
loop_ 
_geom_bond_atom_site_label_1 
_geom_bond_atom_site_label_2 
_geom_bond_distance 
_geom_bond_site_symmetry_2 
_ccdc_geom_bond_type 
C1            N2   1.356       .  A
C1          N702   1.360       .  A
C1          C685   1.476       .  S
N2            C3   1.356       .  A
C3            N4   1.363       .  A
C3          C673   1.490       .  S
N4          C701   1.364       .  A
C5            N6   1.364       .  A
C5          N700   1.365       .  A
C5            C9   1.482       .  S
N6          C697   1.361       .  A
C7            N8   1.360       .  A
C7           N12   1.356       .  A
C7          C664   1.475       .  S
N8            C9   1.364       .  A
C9           N10   1.365       .  A
N10          C11   1.363       .  A
C11          N12   1.354       .  A
C11         C649   1.484       .  S
C13          N14   1.353       .  A
C13          N18   1.361       .  A
C13         C625   1.476       .  S
N14          C15   1.355       .  A
C15          N16   1.356       .  A
C15         C637   1.474       .  S
N16          C17   1.356       .  A
C17          N18   1.362       .  A
C17          C21   1.468       .  S
C19          N20   1.358       .  A
C19          N24   1.354       .  A
C19         C601   1.482       .  S
N20         C717   1.359       .  A
C21          N22   1.355       .  A
C21         N716   1.360       .  A
N22          C23   1.356       .  A
C23         N720   1.359       .  A
C23         C613   1.482       .  S
N24         C719   1.359       .  A
C25          N26   1.362       .  A
C25          N30   1.354       .  A
C25         C580   1.496       .  S
N26          C27   1.366       .  A
C27          N28   1.363       .  A
C27          C33   1.479       .  S
N28          C29   1.360       .  A
C29          N30   1.353       .  A
C29         C589   1.480       .  S
C31          N32   1.366       .  A
C31          N36   1.353       .  A
C31         C553   1.497       .  S
N32          C33   1.367       .  A
C33          N34   1.361       .  A
N34          C35   1.356       .  A
C35          N36   1.350       .  A
C35         C568   1.468       .  S
O37         Ni43   1.950       .  S
O37          C58   1.276       .  A
O38         Ni61   1.896       .  S
O38          C47   1.264       .  A
O39         Ni43   1.915       .  S
O39         Ni61   1.900       .  S
O39         Ni55   1.907       .  S
O39          H62   0.965       .  S
C40         C577   1.498       .  S
C40          O57   1.271       .  A
C40          O49   1.277       .  A
O41         Ni60   1.942       .  S
O41          C47   1.272       .  A
O42         Ni60   1.889       .  S
O42          C44   1.266       .  A
Ni43         O46   1.950       .  S
Ni43         O48   1.883       .  S
C44         C628   1.463       .  S
C44          O54   1.274       .  A
O45         Ni61   1.888       .  S
O45          C51   1.267       .  A
O46          C51   1.281       .  A
C47         C652   1.484       .  S
O48          C50   1.264       .  A
O49         Ni60   1.933       .  S
C50         C604   1.465       .  S
C50          O56   1.276       .  A
C51         C556   1.489       .  S
H52          O53   0.966       .  S
O53         Ni61   1.909       .  S
O53         Ni55   1.909       .  S
O53         Ni60   1.916       .  S
O54         Ni55   1.936       .  S
Ni55         O59   1.890       .  S
Ni55         O57   1.905       .  S
O56         Ni61   1.948       .  S
C58         C676   1.486       .  S
C58          O59   1.263       .  A
O63         Ni69   1.935       .  S
O63          C84   1.275       .  A
O64         Ni87   1.890       .  S
O64          C73   1.266       .  A
O65         Ni69   1.922       .  S
O65         Ni87   1.897       .  S
O65         Ni81   1.904       .  S
O65          H88   0.965       .  S
C66         C616   1.464       .  S
C66          O83   1.263       .  A
C66          O75   1.273       .  A
O67         Ni86   1.936       .  S
O67          C73   1.273       .  A
O68         Ni86   1.906       .  S
O68          C70   1.271       .  A
Ni69         O72   1.951       .  S
Ni69         O74   1.909       .  S
C70         C592   1.494       .  S
C70          O80   1.278       .  A
O71         Ni87   1.890       .  S
O71          C77   1.265       .  A
O72          C77   1.274       .  A
C73         C517   1.491       .  S
O74          C76   1.271       .  A
O75         Ni86   1.941       .  S
C76         C541   1.494       .  S
C76          O82   1.277       .  A
C77         C529   1.469       .  S
H78          O79   0.965       .  S
O79         Ni87   1.906       .  S
O79         Ni81   1.901       .  S
O79         Ni86   1.923       .  S
O80         Ni81   1.947       .  S
Ni81         O85   1.896       .  S
Ni81         O83   1.884       .  S
O82         Ni87   1.949       .  S
C84         C661   1.491       .  S
C84          O85   1.265       .  A
C89          N94   1.355       .  A
C89         N786   1.362       .  A
C89         C496   1.492       .  S
N90         C785   1.364       .  A
N90         C787   1.366       .  A
C91          N92   1.361       .  A
C91         N786   1.363       .  A
C91          C97   1.475       .  S
N92          C93   1.359       .  A
C93          N94   1.355       .  A
C93         C508   1.481       .  S
C95          N96   1.359       .  A
C95         N100   1.351       .  A
C95         C481   1.474       .  S
N96          C97   1.363       .  A
C97          N98   1.363       .  A
N98          C99   1.361       .  A
C99         N100   1.353       .  A
C99         C544   1.480       .  S
C101        N102   1.354       .  A
C101        N106   1.361       .  A
C101        C472   1.473       .  S
N102        C103   1.352       .  A
C103        N104   1.358       .  A
C103        C460   1.483       .  S
N104        C105   1.362       .  A
C105        N106   1.364       .  A
C105        C109   1.474       .  S
C107        N108   1.357       .  A
C107        N112   1.352       .  A
C107        C532   1.468       .  S
N108        C109   1.361       .  A
C109        N110   1.363       .  A
N110        C111   1.363       .  A
C111        N112   1.351       .  A
C111        C448   1.479       .  S
C113        N114   1.352       .  A
C113        N118   1.361       .  A
C113        C433   1.470       .  S
N114        C115   1.351       .  A
C115        N116   1.359       .  A
C115        C421   1.477       .  S
N116        C117   1.363       .  A
C117        N118   1.363       .  A
C117        C123   1.476       .  S
C119        N120   1.355       .  A
C119        N124   1.356       .  A
C119        C520   1.470       .  S
N120        C121   1.358       .  A
C121        N122   1.364       .  A
C121        C412   1.494       .  S
N122        C123   1.364       .  A
C123        N124   1.361       .  A
O125       Ni131   1.931       .  S
O125        C146   1.275       .  A
O126      Ni1541   1.894   1_545  S
O126        C135   1.268   1_655  A
O127       Ni131   1.899       .  S
O127       Ni143   1.915       .  S
O127       Ni845   1.881       .  S
O127        H150   0.966       .  S
C128        C424   1.479       .  S
C128        O145   1.274       .  A
C128        O137   1.279       .  A
O129       Ni844   1.931   1_445  S
O129        C135   1.273       .  A
O130       Ni148   1.893   1_455  S
O130        C132   1.267       .  A
Ni131       O136   1.905       .  S
Ni131       O830   1.932       .  S
C132        C484   1.467       .  S
C132       O1534   1.280   1_455  A
O133       Ni149   1.925       .  S
O133        C139   1.279       .  A
O134       Ni827   1.930   1_545  S
O134        C139   1.279       .  A
C135        C457   1.470       .  S
O136        C138   1.270       .  A
O137      Ni1540   1.926       .  S
C138        C493   1.479       .  S
C138        O840   1.277       .  A
C139        C409   1.497       .  S
H140        O141   0.967       .  S
O141       Ni143   1.883       .  S
O141       Ni845   1.916       .  S
O141      Ni1540   1.895       .  S
O142       Ni143   1.945       .  S
O142       C1524   1.280       .  A
Ni143       O147   1.890       .  S
Ni143       O145   1.911       .  S
O144       Ni149   1.939   1_565  S
O144        C834   1.276       .  A
C146        C445   1.476       .  S
C146        O147   1.268       .  A
Ni148       O825   1.926   1_655  S
Ni148      O1529   1.928       .  S
Ni148      O1533   1.899       .  S
Ni149      O1518   1.890       .  S
Ni149       O823   1.885   1_545  S
Ni149       O837   1.925   1_545  S
C151        N152   1.355       .  A
C151        N156   1.360       .  A
C151        C400   1.478       .  S
N152        C153   1.353       .  A
C153        N154   1.365       .  A
C153        C388   1.490       .  S
N154        C155   1.368       .  A
C155        N156   1.366       .  A
C155        C159   1.485       .  S
C157        N158   1.363       .  A
C157        N162   1.354       .  A
C157        C373   1.477       .  S
N158        C159   1.366       .  A
C159        N160   1.366       .  A
N160        C161   1.363       .  A
C161        N162   1.353       .  A
C161        C361   1.491       .  S
C163        N164   1.350       .  A
C163        N168   1.356       .  A
C163       C1033   1.480       .  S
N164        C165   1.356       .  A
C165        N166   1.361       .  A
C165        C349   1.472       .  S
N166        C167   1.359       .  A
C167        N168   1.357       .  A
C167        C173   1.468       .  S
C169        N170   1.353       .  A
C169        N174   1.361       .  A
C169        C313   1.472       .  S
N170        C171   1.354       .  A
C171       N1564   1.356       .  A
C171        C325   1.470       .  S
N172        C173   1.357       .  A
N172       C1563   1.354       .  A
C173       N1566   1.361   1_455  A
N174       C1565   1.359       .  A
C175        N176   1.362       .  A
C175        N180   1.354       .  A
C175        C289   1.493       .  S
N176        C177   1.362       .  A
C177        N178   1.362       .  A
C177        C185   1.477       .  S
N178        C179   1.360       .  A
C179        N180   1.353       .  A
C179        C301   1.475       .  S
C181        N182   1.348       .  A
C181        N186   1.363       .  A
C181        C265   1.481       .  S
N182       C1575   1.347       .  A
C183        N184   1.360       .  A
C183       N1574   1.347   1_455  A
C183        C277   1.473       .  S
N184        C185   1.366       .  A
C185       N1578   1.365   1_455  A
N186       C1577   1.367       .  A
O187       Ni193   1.945       .  S
O187        C208   1.272       .  A
O188       Ni211   1.902       .  S
O188        C197   1.265       .  A
O189       Ni193   1.917       .  S
O189       Ni211   1.916       .  S
O189       Ni205   1.905       .  S
O189        H212   0.967       .  S
C190        C292   1.488       .  S
C190        O207   1.264       .  A
C190        O199   1.278       .  A
O191       Ni210   1.949       .  S
O191        C197   1.275       .  A
O192       Ni210   1.885       .  S
O192        C194   1.265       .  A
Ni193       O196   1.931       .  S
Ni193       O198   1.888       .  S
C194        C340   1.465       .  S
C194        O204   1.276       .  A
O195       Ni211   1.901       .  S
O195        C201   1.268       .  A
O196        C201   1.279       .  A
C197        C364   1.494       .  S
O198        C200   1.265       .  A
O199       Ni210   1.945       .  S
C200        C316   1.463       .  S
C200        O206   1.275       .  A
C201        C268   1.495       .  S
H202        O203   0.966       .  S
O203       Ni211   1.911       .  S
O203       Ni205   1.909       .  S
O203       Ni210   1.920       .  S
O204       Ni205   1.947       .  S
Ni205       O209   1.897       .  S
Ni205       O207   1.886       .  S
O206       Ni211   1.942       .  S
C208        C385   1.487       .  S
C208        O209   1.263       .  A
O213       Ni219   1.941   1_544  S
O213        C234   1.274       .  A
O214       Ni237   1.891       .  S
O214        C223   1.264       .  A
O215       Ni237   1.915       .  S
O215       Ni231   1.928   1_556  S
O215       Ni915   1.933       .  S
O215        H238   0.966       .  S
C216        C688   1.476       .  S
C216        O233   1.272       .  A
C216        O225   1.275       .  A
O217       Ni236   1.922       .  S
O217        C223   1.269       .  A
O218       Ni236   1.908   1_554  S
O218        C220   1.266       .  A
Ni219       O224   1.911   1_565  S
Ni219       O918   1.937       .  S
Ni219       O911   1.931       .  S
C220        C565   1.472       .  S
C220        O230   1.269       .  A
O221       Ni237   1.914       .  S
O221        C227   1.269       .  A
O222       Ni915   1.929       .  S
O222        C227   1.273       .  A
C223        C328   1.465       .  S
O224        C226   1.269       .  A
O225      Ni1628   1.927   1_554  S
C226       C1696   1.466       .  S
C226        O928   1.271       .  A
C227        C376   1.488       .  S
H228       O1621   0.969   1_455  S
O229       Ni237   1.902       .  S
O229       Ni231   1.890   1_556  S
O229       Ni236   1.919       .  S
O229       H1620   0.966       .  S
O230       Ni231   1.923       .  S
Ni231       O931   1.874       .  S
Ni231      O1625   1.913       .  S
O232       Ni237   1.928       .  S
O232        C922   1.273       .  A
O233      Ni1623   1.912   1_455  S
C234        C640   1.466       .  S
C234        O235   1.261   1_545  A
O235       Ni927   1.882       .  S
Ni236      O1617   1.921   1_556  S
O239       Ni245   1.924       .  S
O239        C260   1.269       .  A
O240       Ni263   1.898       .  S
O240        C249   1.266       .  A
O241       Ni245   1.922       .  S
O241       Ni263   1.903       .  S
O241       Ni257   1.913       .  S
O241        H264   0.966       .  S
C242        C469   1.472       .  S
C242        O259   1.266       .  A
C242        O251   1.275       .  A
O243       Ni262   1.940       .  S
O243        C249   1.275       .  A
O244       Ni262   1.905       .  S
O244        C246   1.271       .  A
Ni245       O248   1.929       .  S
Ni245       O250   1.905       .  S
C246        C505   1.493       .  S
C246        O256   1.276       .  A
O247       Ni263   1.892       .  S
O247        C253   1.264       .  A
O248        C253   1.269       .  A
C249        C397   1.490       .  S
O250        C252   1.272       .  A
O251       Ni262   1.950       .  S
C252        C280   1.487       .  S
C252        O258   1.278       .  A
C253        C352   1.458       .  S
H254        O255   0.967       .  S
O255       Ni263   1.906       .  S
O255       Ni257   1.902       .  S
O255       Ni262   1.919       .  S
O256       Ni257   1.948       .  S
Ni257       O261   1.896       .  S
Ni257       O259   1.897       .  S
O258       Ni263   1.943       .  S
C260        C436   1.493       .  S
C260        O261   1.267       .  A
C265        C266   1.401       .  A
C265        C270   1.416       .  A
C266        C267   1.409       .  A
C266        H275   1.083       .  S
C267        C268   1.423       .  A
C267        S271   1.806       .  S
C268        C269   1.404       .  A
C269        C270   1.394       .  A
C269        H276   1.082       .  S
C270        S272   1.813       .  S
S271        H274   1.406       .  S
S272        H273   1.407       .  S
C277        C278   1.404       .  A
C277        C282   1.411       .  A
C278        C279   1.400       .  A
C278        H287   1.084       .  S
C279        C280   1.416       .  A
C279        S283   1.803       .  S
C280        C281   1.409       .  A
C281        C282   1.399       .  A
C281        H288   1.084       .  S
C282        S284   1.801       .  S
S283        H286   1.407       .  S
S284        H285   1.404       .  S
C289        C290   1.412       .  A
C289        C294   1.414       .  A
C290        C291   1.399       .  A
C290        H299   1.083       .  S
C291        C292   1.409       .  A
C291        S295   1.802       .  S
C292        C293   1.411       .  A
C293        C294   1.398       .  A
C293        H300   1.082       .  S
C294        S296   1.803       .  S
S295        H298   1.408       .  S
S296        H297   1.408       .  S
C301        C302   1.407       .  A
C301        C306   1.410   1_455  A
C302        C303   1.403   1_455  A
C302        H311   1.084       .  S
C303        C304   1.412       .  A
C303        S307   1.806   1_655  S
C304       C1618   1.471       .  S
C304       C1697   1.404       .  A
C305       C1696   1.402       .  A
C305       C1698   1.398       .  A
C305        H312   1.085       .  S
C306       C1697   1.395       .  A
C306       S1700   1.800       .  S
S307        H310   1.399   1_455  S
S308       C1698   1.800       .  S
S308        H309   1.407       .  S
C313        C314   1.405       .  A
C313        C318   1.411       .  A
C314        C315   1.398       .  A
C314        H323   1.084       .  S
C315        C316   1.409       .  A
C315        S319   1.802       .  S
C316        C317   1.402       .  A
C317        C318   1.398       .  A
C317        H324   1.085       .  S
C318        S320   1.803       .  S
S319        H322   1.405       .  S
S320        H321   1.407       .  S
C325        C326   1.404       .  A
C325       C1722   1.413       .  A
C326        C327   1.399       .  A
C326        H335   1.083       .  S
C327        C328   1.411       .  A
C327        S331   1.809       .  S
C328        C329   1.400       .  A
C329       C1722   1.393       .  A
C329       H1728   1.084       .  S
C330       C1717   1.413       .  A
C330       C1721   1.396   1_455  A
C330        S332   1.804       .  S
S331        H334   1.407       .  S
S332        H333   1.408       .  S
H336       C1721   1.084       .  S
C337        C859   1.484       .  S
C337        C338   1.405   1_565  A
C337        C342   1.419       .  A
C338        C339   1.402       .  A
C338        H347   1.083   1_545  S
C339        C340   1.408       .  A
C339        S343   1.807       .  S
C340        C341   1.398       .  A
C341        C342   1.402   1_545  A
C341        H348   1.083       .  S
C342        S344   1.808       .  S
S343        H346   1.407       .  S
S344       H1041   1.407       .  S
H345       S1040   1.407       .  S
C349        C350   1.406       .  A
C349        C354   1.415       .  A
C350        C351   1.392       .  A
C350        H359   1.084       .  S
C351        C352   1.406       .  A
C351        S355   1.805       .  S
C352        C353   1.402       .  A
C353        C354   1.396       .  A
C353        H360   1.085       .  S
C354        S356   1.803       .  S
S355        H358   1.406       .  S
S356        H357   1.407       .  S
C361       C1058   1.403       .  A
C361       C1062   1.421       .  A
C362        C363   1.402       .  A
C362       C1057   1.401       .  A
C362       H1067   1.084       .  S
C363        C364   1.419   1_565  A
C363        S367   1.802       .  S
C364        C365   1.406       .  A
C365        C366   1.411       .  A
C365        H372   1.083       .  S
C366       C1057   1.420   1_545  A
C366        S368   1.809       .  S
S367        H370   1.407   1_565  S
S368       H1065   1.407       .  S
H369       S1064   1.407       .  S
H371       C1058   1.084       .  S
C373        C374   1.402       .  A
C373        C378   1.412       .  A
C374        C375   1.404       .  A
C374        H383   1.084       .  S
C375        C376   1.418       .  A
C375       S1075   1.800       .  S
C376        C377   1.405       .  A
C377        C378   1.400       .  A
C377        H384   1.084       .  S
C378        S380   1.804       .  S
S379       C1071   1.799       .  S
S379        H382   1.407       .  S
S380        H381   1.407       .  S
C385        C386   1.407       .  A
C385        C390   1.411       .  A
C386        C387   1.403       .  A
C386        H395   1.081       .  S
C387        C388   1.413       .  A
C387        S391   1.802       .  S
C388        C389   1.410       .  A
C389        C390   1.405       .  A
C389        H396   1.084       .  S
C390        S392   1.802       .  S
S391        H394   1.407       .  S
S392        H393   1.407       .  S
C397        C398   1.405       .  A
C397        C402   1.420       .  A
C398        C399   1.397       .  A
C398        H407   1.083       .  S
C399        C400   1.411       .  A
C399        S403   1.804       .  S
C400        C401   1.403       .  A
C401        C402   1.406       .  A
C401        H408   1.084       .  S
C402        S404   1.804       .  S
S403        H406   1.408       .  S
S404        H405   1.408       .  S
C409        C410   1.409       .  A
C409        C414   1.421       .  A
C410        C411   1.404       .  A
C410       H1811   1.083       .  S
C411        C412   1.414       .  A
C411       S1807   1.802       .  S
C412        C413   1.407       .  A
C413        C414   1.404       .  A
C413        H420   1.083       .  S
C414        S416   1.810       .  S
S415       C1803   1.801   1_455  S
S415        H418   1.407       .  S
S416        H417   1.407       .  S
H419       C1802   1.083   1_455  S
C421        C422   1.403       .  A
C421        C426   1.414       .  A
C422        C423   1.405       .  A
C422        H431   1.083       .  S
C423        C424   1.412       .  A
C423       S1819   1.804       .  S
C424        C425   1.404       .  A
C425        C426   1.399       .  A
C425        H432   1.083       .  S
C426        S428   1.811       .  S
S427       C1815   1.806       .  S
S427        H430   1.407       .  S
S428        H429   1.407       .  S
C433        C434   1.402       .  A
C433       C1830   1.405       .  A
C434       C1827   1.406       .  A
C434        H443   1.083       .  S
C435        C436   1.422   1_655  A
C435       C1826   1.402       .  A
C435        S439   1.811       .  S
C436        C437   1.410       .  A
C437        C438   1.397       .  A
C437        H444   1.083       .  S
C438       C1825   1.407       .  A
C438        S440   1.800       .  S
S439        H442   1.407       .  S
S440        H441   1.405       .  S
C445        C446   1.400       .  A
C445        C450   1.416       .  A
C446        C447   1.408       .  A
C446        H455   1.083       .  S
C447        C448   1.420       .  A
C447        S451   1.809       .  S
C448        C449   1.397       .  A
C449        C450   1.392       .  A
C449        H456   1.084       .  S
C450        S452   1.800       .  S
S451        H454   1.407       .  S
S452        H453   1.408       .  S
C457        C458   1.403       .  A
C457        C462   1.408       .  A
C458        C459   1.399       .  A
C458        H467   1.083       .  S
C459        C460   1.415       .  A
C459        S463   1.802       .  S
C460        C461   1.408       .  A
C461        C462   1.399       .  A
C461        H468   1.084       .  S
C462        S464   1.804       .  S
S463        H466   1.407       .  S
S464        H465   1.406       .  S
C469        C470   1.400       .  A
C469        C474   1.413       .  A
C470        C471   1.398       .  A
C470        H479   1.084       .  S
C471        C472   1.414       .  A
C471        S475   1.804       .  S
C472        C473   1.402       .  A
C473        C474   1.401       .  A
C473        H480   1.084       .  S
C474        S476   1.800       .  S
S475        H478   1.407       .  S
S476        H477   1.405       .  S
C481        C482   1.405       .  A
C481        C486   1.412       .  A
C482        C483   1.397       .  A
C482        H491   1.084       .  S
C483        C484   1.409       .  A
C483        S487   1.804       .  S
C484        C485   1.405       .  A
C485        C486   1.402       .  A
C485        H492   1.085       .  S
C486        S488   1.804       .  S
S487        H490   1.403       .  S
S488        H489   1.406       .  S
C493        C498   1.408       .  A
C493       C1190   1.406       .  A
C494        C495   1.401       .  A
C494       C1189   1.406   1_545  A
C494        H503   1.084       .  S
C495       C1192   1.415   1_545  A
C495        S499   1.802       .  S
C496        C497   1.412       .  A
C496       C1191   1.416       .  A
C497        C498   1.400       .  A
C497        H504   1.083       .  S
C498        S500   1.800       .  S
S499        H502   1.408       .  S
S500        H501   1.406       .  S
C505        C506   1.407       .  A
C505        C510   1.421       .  A
C506        C507   1.394       .  A
C506        H515   1.083       .  S
C507        C508   1.412       .  A
C507        S511   1.805       .  S
C508        C509   1.404       .  A
C509        C510   1.408       .  A
C509        H516   1.083       .  S
C510        S512   1.809       .  S
S511        H514   1.407       .  S
S512        H513   1.407       .  S
C517        C518   1.409       .  A
C517        C522   1.417       .  A
C518        C519   1.400       .  A
C518        H527   1.082       .  S
C519        C520   1.406       .  A
C519        S523   1.808       .  S
C520        C521   1.400       .  A
C521        C522   1.401       .  A
C521        H528   1.084       .  S
C522        S524   1.802       .  S
S523        H526   1.407       .  S
S524        H525   1.408       .  S
C529        C530   1.400       .  A
C529        C534   1.414       .  A
C530        C531   1.394       .  A
C530        H539   1.084       .  S
C531        C532   1.411       .  A
C531        S535   1.804       .  S
C532        C533   1.401       .  A
C533        C534   1.400       .  A
C533        H540   1.084       .  S
C534        S536   1.800       .  S
S535        H538   1.407       .  S
S536        H537   1.403       .  S
C541        C542   1.409       .  A
C541        C546   1.420       .  A
C542       C1239   1.399   1_545  A
C542        H551   1.083       .  S
C543        C544   1.415       .  A
C543       C1238   1.396       .  A
C543        S547   1.805       .  S
C544       C1241   1.402       .  A
C545        C546   1.401       .  A
C545       C1240   1.403       .  A
C545        H552   1.084       .  S
C546        S548   1.801       .  S
S547        H550   1.407       .  S
S548        H549   1.407       .  S
C553        C554   1.415       .  A
C553        C558   1.413       .  A
C554        C555   1.400       .  A
C554        H563   1.083       .  S
C555        C556   1.409       .  A
C555        S559   1.802       .  S
C556        C557   1.410       .  A
C557        C558   1.398       .  A
C557        H564   1.082       .  S
C558        S560   1.798       .  S
S559        H562   1.408       .  S
S560        H561   1.408       .  S
C565        C566   1.404       .  A
C565        C570   1.408       .  A
C566        C567   1.395       .  A
C566        H575   1.085       .  S
C567        C568   1.410       .  A
C567        S571   1.801       .  S
C568        C569   1.405       .  A
C569        C570   1.404       .  A
C569        H576   1.083       .  S
C570        S572   1.806       .  S
S571        H574   1.405       .  S
S572        H573   1.407       .  S
C577        C578   1.413       .  A
C577        C582   1.415       .  A
C578       C1971   1.404       .  A
C578        H587   1.084       .  S
C579        C580   1.414       .  A
C579       C1970   1.404       .  A
C579        S583   1.801       .  S
C580        C581   1.410       .  A
C581       C1974   1.400       .  A
C581        H588   1.081       .  S
C582       C1973   1.403   1_455  A
C582        S584   1.810       .  S
S583        H586   1.407       .  S
S584        H585   1.406       .  S
C589        C590   1.403       .  A
C589        C594   1.411       .  A
C590        C591   1.400       .  A
C590        H599   1.084       .  S
C591        C592   1.418       .  A
C591        S595   1.803       .  S
C592        C593   1.410       .  A
C593        C594   1.401       .  A
C593        H600   1.084       .  S
C594        S596   1.798       .  S
S595        H598   1.408       .  S
S596        H597   1.401       .  S
C601        C602   1.404       .  A
C601        C606   1.419       .  A
C602        C603   1.402       .  A
C602        H611   1.083       .  S
C603        C604   1.409       .  A
C603        S607   1.807       .  S
C604        C605   1.398       .  A
C605        C606   1.403       .  A
C605        H612   1.083       .  S
C606        S608   1.810       .  S
S607        H610   1.407       .  S
S608        H609   1.406       .  S
C613        C614   1.406       .  A
C613        C618   1.420       .  A
C614        C615   1.392       .  A
C614       H1319   1.084       .  S
C615        C616   1.408       .  A
C615       S1315   1.804       .  S
C616        C617   1.399       .  A
C617        C618   1.397       .  A
C617        H624   1.084       .  S
C618        S620   1.797       .  S
S619       C1311   1.804       .  S
S619       H1318   1.407       .  S
S620        H621   1.408       .  S
H622       S1315   1.407       .  S
H623       C1310   1.083       .  S
C625        C626   1.406       .  A
C625        C630   1.412       .  A
C626       C2019   1.397       .  A
C626        H635   1.084       .  S
C627        C628   1.408       .  A
C627       C2018   1.398       .  A
C627        S631   1.802       .  S
C628        C629   1.402       .  A
C629       C2022   1.397   1_455  A
C629        H636   1.085       .  S
C630       C2021   1.398       .  A
C630        S632   1.801       .  S
S631        H634   1.405       .  S
S632        H633   1.406       .  S
C637        C638   1.405       .  A
C637        C642   1.415       .  A
C638        C639   1.394       .  A
C638        H647   1.084       .  S
C639        C640   1.408       .  A
C639        S643   1.803       .  S
C640        C641   1.403       .  A
C641        C642   1.400       .  A
C641        H648   1.083   1_545  S
C642        S644   1.810   1_545  S
S643        H646   1.406       .  S
S644        H645   1.407       .  S
C649        C650   1.408       .  A
C649        C654   1.413       .  A
C650        C651   1.405       .  A
C650        H659   1.084       .  S
C651        C652   1.413       .  A
C651        S655   1.803       .  S
C652        C653   1.405       .  A
C653        C654   1.400       .  A
C653        H660   1.081       .  S
C654        S656   1.803       .  S
S655        H658   1.406       .  S
S656        H657   1.406       .  S
C661        C662   1.406       .  A
C661        C666   1.421       .  A
C662        C663   1.395       .  A
C662        H671   1.083       .  S
C663        C664   1.409       .  A
C663       S1363   1.804       .  S
C664        C665   1.403       .  A
C665        C666   1.409       .  A
C665        H672   1.083       .  S
C666        S668   1.810       .  S
S667       C1359   1.806       .  S
S667        H670   1.407       .  S
S668        H669   1.407       .  S
C673        C674   1.402       .  A
C673        C678   1.419       .  A
C674        C675   1.400       .  A
C674        H683   1.084       .  S
C675        C676   1.418       .  A
C675        S679   1.805       .  S
C676        C677   1.404       .  A
C677        C678   1.408       .  A
C677        H684   1.083       .  S
C678        S680   1.809       .  S
S679        H682   1.408       .  S
S680        H681   1.407       .  S
C685        C690   1.413       .  A
C685       C1382   1.403       .  A
C686        C687   1.399       .  A
C686       C1381   1.403       .  A
C686        H695   1.084       .  S
C687       C1384   1.412       .  A
C687        S691   1.803       .  S
C688        C689   1.404       .  A
C688       C1383   1.411       .  A
C689        C690   1.401       .  A
C689        H696   1.084       .  S
C690        S692   1.800       .  S
S691        H694   1.407       .  S
S692        H693   1.405       .  S
C697        N698   1.354       .  A
C697       C1381   1.472       .  S
N698        C699   1.352   1_545  A
C699        N700   1.364   1_565  A
C699       C1369   1.493       .  S
C701        N702   1.362       .  A
C701        C705   1.481       .  S
C703        N704   1.361       .  A
C703        N708   1.352       .  A
C703       C1360   1.475       .  S
N704        C705   1.365       .  A
C705        N706   1.367       .  A
N706        C707   1.363       .  A
C707        N708   1.351       .  A
C707       C1345   1.480       .  S
C709        N710   1.355       .  A
C709        N714   1.363       .  A
C709       C1321   1.475       .  S
N710        C711   1.354       .  A
C711        N712   1.357       .  A
C711       C1333   1.466       .  S
N712        C713   1.358       .  A
C713        N714   1.361       .  A
C713        C717   1.474       .  S
C715        N716   1.360       .  A
C715        N720   1.354       .  A
C715       C1297   1.482   1_545  S
C717        N718   1.360       .  A
N718        C719   1.361       .  A
C719       C1309   1.496       .  S
C721        N722   1.366       .  A
C721        N726   1.353       .  A
C721       C1276   1.497       .  S
N722        C723   1.368       .  A
C723        N724   1.367       .  A
C723        C729   1.489       .  S
N724        C725   1.362       .  A
C725        N726   1.350       .  A
C725       C1285   1.480       .  S
C727        N728   1.365       .  A
C727        N732   1.353       .  A
C727       C1249   1.495       .  S
N728        C729   1.368       .  A
C729        N730   1.367       .  A
N730        C731   1.364       .  A
C731        N732   1.351       .  A
C731       C1264   1.480       .  S
O733       Ni739   1.941       .  S
O733        C754   1.274       .  A
O734       Ni757   1.898       .  S
O734        C743   1.269       .  A
O735       Ni739   1.906       .  S
O735       Ni757   1.901       .  S
O735       Ni751   1.913       .  S
O735        H758   0.967       .  S
C736       C1273   1.498       .  S
C736        O753   1.272       .  A
C736        O745   1.280       .  A
O737       Ni756   1.943       .  S
O737        C743   1.275       .  A
O738       Ni756   1.894       .  S
O738        C740   1.266       .  A
Ni739       O742   1.939       .  S
Ni739       O744   1.880       .  S
C740       C1324   1.467       .  S
C740        O750   1.277       .  A
O741       Ni757   1.906       .  S
O741        C747   1.272       .  A
O742        C747   1.279       .  A
C743       C1348   1.486       .  S
O744        C746   1.264       .  A
O745       Ni756   1.938       .  S
C746       C1300   1.467       .  S
C746        O752   1.279       .  A
C747       C1252   1.501       .  S
H748        O749   0.965       .  S
O749       Ni757   1.912       .  S
O749       Ni751   1.895       .  S
O749       Ni756   1.906       .  S
O750       Ni751   1.941       .  S
Ni751       O755   1.897       .  S
Ni751       O753   1.903       .  S
O752       Ni757   1.954       .  S
C754       C1372   1.484       .  S
C754        O755   1.266       .  A
O759       Ni765   1.937       .  S
O759        C780   1.275       .  A
O760       Ni783   1.890       .  S
O760        C769   1.264       .  A
O761       Ni765   1.926       .  S
O761       Ni783   1.900       .  S
O761       Ni777   1.911       .  S
O761        H784   0.968       .  S
C762       C1312   1.474       .  S
C762        O779   1.267       .  A
C762        O771   1.274       .  A
O763       Ni782   1.945       .  S
O763        C769   1.275       .  A
O764       Ni782   1.912       .  S
O764        C766   1.273       .  A
Ni765       O768   1.949       .  S
Ni765       O770   1.910       .  S
C766       C1288   1.492       .  S
C766        O776   1.276       .  A
O767       Ni783   1.892       .  S
O767        C773   1.265       .  A
O768        C773   1.274       .  A
C769       C1213   1.495       .  S
O770        C772   1.272       .  A
O771       Ni782   1.940       .  S
C772       C1237   1.490       .  S
C772        O778   1.275       .  A
C773       C1225   1.470       .  S
H774        O775   0.968       .  S
O775       Ni783   1.908       .  S
O775       Ni777   1.904       .  S
O775       Ni782   1.924       .  S
O776       Ni777   1.937       .  S
Ni777       O781   1.894       .  S
Ni777       O779   1.897       .  S
O778       Ni783   1.943       .  S
C780       C1357   1.491       .  S
C780        O781   1.265       .  A
C785        N790   1.356       .  A
C785       C1192   1.496       .  S
C787        N788   1.359       .  A
C787        C793   1.480       .  S
N788        C789   1.360       .  A
C789        N790   1.358       .  A
C789       C1204   1.478       .  S
C791        N792   1.367       .  A
C791        N796   1.360       .  A
C791       C1177   1.500       .  S
N792        C793   1.367       .  A
C793        N794   1.358       .  A
N794        C795   1.357       .  A
C795        N796   1.361       .  A
C795       C1240   1.481   1_565  S
C797        N798   1.348       .  A
C797        N802   1.356       .  A
C797       C1168   1.467       .  S
N798        C799   1.347       .  A
C799        N800   1.364       .  A
C799       C1156   1.480       .  S
N800        C801   1.368       .  A
C801        N802   1.362       .  A
C801        C805   1.476       .  S
C803        N804   1.360       .  A
C803        N808   1.353       .  A
C803       C1228   1.469       .  S
N804        C805   1.362       .  A
C805        N806   1.364       .  A
N806        C807   1.361       .  A
C807        N808   1.349       .  A
C807       C1144   1.481       .  S
C809        N810   1.355       .  A
C809        N814   1.367       .  A
C809       C1129   1.489       .  S
N810        C811   1.353       .  A
C811        N812   1.358       .  A
C811       C1117   1.484       .  S
N812        C813   1.364       .  A
C813        N814   1.371       .  A
C813        C819   1.483       .  S
C815        N816   1.355       .  A
C815        N820   1.359       .  A
C815       C1216   1.474       .  S
N816        C817   1.358       .  A
C817        N818   1.364       .  A
C817       C1108   1.494       .  S
N818        C819   1.362       .  A
C819        N820   1.363       .  A
O821       Ni827   1.930       .  S
O821        C842   1.274       .  A
O822      Ni2237   1.891       .  S
O822        C831   1.268   1_655  A
O823       Ni827   1.900       .  S
O823       Ni839   1.918       .  S
O823        H846   0.967       .  S
C824       C1120   1.486       .  S
C824        O841   1.273       .  A
C824        O833   1.278       .  A
O825        C831   1.272       .  A
O826       Ni844   1.905   1_455  S
O826        C828   1.270       .  A
Ni827       O832   1.911       .  S
C828       C1180   1.490       .  S
C828       O2230   1.286   1_455  A
O829       Ni845   1.915       .  S
O829        C835   1.278       .  A
O830        C835   1.280       .  A
C831       C1153   1.471       .  S
O832        C834   1.271       .  A
O833      Ni2236   1.928       .  S
C834       C1189   1.483       .  S
C835       C1105   1.495       .  S
H836        O837   0.966       .  S
O837       Ni839   1.895       .  S
O837      Ni2236   1.901       .  S
O838       Ni839   1.957       .  S
O838       C2220   1.283       .  A
Ni839       O843   1.892       .  S
Ni839       O841   1.916       .  S
O840       Ni845   1.937       .  S
C842       C1141   1.480       .  S
C842        O843   1.269       .  A
Ni844      O2225   1.930       .  S
Ni844      O2229   1.898       .  S
Ni845      O2214   1.895       .  S
C847        N848   1.353       .  A
C847        N852   1.360       .  A
C847       C1096   1.472       .  S
N848        C849   1.351       .  A
C849        N850   1.364       .  A
C849       C1084   1.491       .  S
N850        C851   1.368       .  A
C851        N852   1.365       .  A
C851        C855   1.484       .  S
C853        N854   1.359       .  A
C853        N858   1.354       .  A
C853       C1069   1.468       .  S
N854        C855   1.363       .  A
C855        N856   1.368       .  A
N856        C857   1.366       .  A
C857        N858   1.353       .  A
C857       C1057   1.493       .  S
C859        N860   1.352       .  A
C859        N864   1.359       .  A
N860        C861   1.358       .  A
C861        N862   1.361       .  A
C861       C1045   1.491       .  S
N862        C863   1.361       .  A
C863        N864   1.360       .  A
C863        C869   1.475       .  S
C865        N866   1.354       .  A
C865        N870   1.359       .  A
C865       C1009   1.474       .  S
N866        C867   1.355       .  A
C867       N2260   1.360       .  A
C867       C1021   1.481       .  S
N868       C2259   1.359       .  A
N868        C869   1.360       .  A
C869       N2262   1.361   1_455  A
N870       C2261   1.360       .  A
C871        N872   1.365       .  A
C871        N876   1.355       .  A
C871        C985   1.495       .  S
N872        C873   1.365       .  A
C873        N874   1.363       .  A
C873        C881   1.482       .  S
N874        C875   1.359       .  A
C875        N876   1.354       .  A
C875        C997   1.488       .  S
C877        N878   1.351       .  A
C877        N882   1.360       .  A
C877        C961   1.478       .  S
N878       C2271   1.352       .  A
C879       N2270   1.352       .  A
C879        N880   1.364       .  A
C879        C973   1.479       .  S
N880        C881   1.367       .  A
C881       N2274   1.365   1_455  A
N882       C2273   1.367       .  A
O883       Ni889   1.943       .  S
O883        C904   1.273       .  A
O884       Ni907   1.892       .  S
O884        C893   1.264       .  A
O885       Ni889   1.906       .  S
O885       Ni907   1.904       .  S
O885       Ni901   1.914       .  S
O885        H908   0.965       .  S
C886        C988   1.500       .  S
C886        O903   1.274       .  A
C886        O895   1.281       .  A
O887       Ni906   1.950       .  S
O887        C893   1.276       .  A
O888       Ni906   1.889       .  S
O888        C890   1.266       .  A
Ni889       O892   1.938       .  S
Ni889       O894   1.886       .  S
C890       C1036   1.462       .  S
C890        O900   1.274       .  A
O891       Ni907   1.902       .  S
O891        C897   1.269       .  A
O892        C897   1.281       .  A
C893       C1060   1.485       .  S
O894        C896   1.266       .  A
O895       Ni906   1.938       .  S
C896       C1012   1.462       .  S
C896        O902   1.276       .  A
C897        C964   1.489       .  S
H898        O899   0.967       .  S
O899       Ni907   1.905       .  S
O899       Ni901   1.891       .  S
O899       Ni906   1.904       .  S
O900       Ni901   1.933       .  S
Ni901       O905   1.894       .  S
Ni901       O903   1.908       .  S
O902       Ni907   1.941       .  S
C904       C1081   1.480       .  S
C904        O905   1.266       .  A
O909       Ni915   1.933   1_554  S
O909        C930   1.271       .  A
O910       Ni933   1.887       .  S
O910        C919   1.260       .  A
O911       Ni933   1.905       .  S
O911       Ni927   1.919   1_556  S
O911        H934   0.969       .  S
C912       C1384   1.478       .  S
C912        O929   1.271       .  A
C912        O921   1.277   1_545  A
O913       Ni932   1.948       .  S
O913        C919   1.276       .  A
O914       Ni932   1.922   1_554  S
O914        C916   1.269       .  A
Ni915       O920   1.907       .  S
C916       C1261   1.477       .  S
C916        O926   1.269       .  A
O917       Ni933   1.901       .  S
O917        C923   1.267       .  A
O918        C923   1.277       .  A
C919       C1024   1.479       .  S
O920        C922   1.270       .  A
O921      Ni2324   1.936   1_554  S
C922       C2392   1.464       .  S
C923       C1072   1.484       .  S
H924       O2317   0.966   1_445  S
O925       Ni933   1.895       .  S
O925       Ni927   1.895   1_556  S
O925       Ni932   1.916       .  S
O925       H2316   0.971   1_565  S
O926       Ni927   1.921       .  S
Ni927      O2321   1.917   1_565  S
O928       Ni933   1.920   1_545  S
O929      Ni2319   1.906   1_445  S
C930       C1336   1.473       .  S
C930        O931   1.260       .  A
Ni932      O2313   1.935   1_556  S
O935       Ni941   1.941       .  S
O935        C956   1.272       .  A
O936       Ni959   1.889       .  S
O936        C945   1.260       .  A
O937       Ni941   1.927       .  S
O937       Ni959   1.901       .  S
O937       Ni953   1.898       .  S
O937        H960   0.967       .  S
C938       C1165   1.461       .  S
C938        O955   1.267       .  A
C938        O947   1.272       .  A
O939       Ni958   1.935       .  S
O939        C945   1.272       .  A
O940       Ni958   1.902       .  S
O940        C942   1.270       .  A
Ni941       O944   1.941       .  S
Ni941       O946   1.914       .  S
C942       C1201   1.493       .  S
C942        O952   1.274       .  A
O943       Ni959   1.882       .  S
O943        C949   1.266       .  A
O944        C949   1.277       .  A
C945       C1093   1.484       .  S
O946        C948   1.270       .  A
O947       Ni958   1.936       .  S
C948        C976   1.489       .  S
C948        O954   1.270       .  A
C949       C1048   1.466       .  S
H950        O951   0.967       .  S
O951       Ni959   1.909       .  S
O951       Ni953   1.917       .  S
O951       Ni958   1.929       .  S
O952       Ni953   1.940       .  S
Ni953       O957   1.917       .  S
Ni953       O955   1.886       .  S
O954       Ni959   1.926       .  S
C956       C1132   1.503       .  S
C956        O957   1.270       .  A
C961        C962   1.404       .  A
C961        C966   1.410       .  A
C962        C963   1.412       .  A
C962        H971   1.083       .  S
C963        C964   1.420       .  A
C963        S967   1.807       .  S
C964        C965   1.404       .  A
C965        C966   1.395       .  A
C965        H972   1.082       .  S
C966        S968   1.811       .  S
S967        H970   1.407       .  S
S968        H969   1.407       .  S
C973        C974   1.405       .  A
C973        C978   1.412       .  A
C974        C975   1.402       .  A
C974        H983   1.084       .  S
C975        C976   1.414       .  A
C975        S979   1.803       .  S
C976        C977   1.408       .  A
C977        C978   1.401       .  A
C977        H984   1.084       .  S
C978        S980   1.800       .  S
S979        H982   1.408       .  S
S980        H981   1.404       .  S
C985        C986   1.410       .  A
C985        C990   1.412       .  A
C986        C987   1.400       .  A
C986        H995   1.083       .  S
C987        C988   1.417       .  A
C987        S991   1.802       .  S
C988        C989   1.413       .  A
C989        C990   1.401       .  A
C989        H996   1.081       .  S
C990        S992   1.801       .  S
S991        H994   1.408       .  S
S992        H993   1.407       .  S
C997        C998   1.410       .  A
C997       C1002   1.417   1_455  A
C998        C999   1.399   1_455  A
C998       H1007   1.084       .  S
C999       C1000   1.407       .  A
C999       S1003   1.804   1_655  S
C1000      C2314   1.469       .  S
C1000      C2393   1.403       .  A
C1001      C2392   1.401       .  A
C1001      C2394   1.398       .  A
C1001      H1008   1.085       .  S
C1002      C2393   1.401       .  A
C1002      S2396   1.800       .  S
S1003      H1006   1.404   1_455  S
S1004      C2394   1.800       .  S
S1004      H1005   1.407       .  S
C1009      C1010   1.404       .  A
C1009      C1014   1.412       .  A
C1010      C1011   1.397       .  A
C1010      H1019   1.084       .  S
C1011      C1012   1.409       .  A
C1011      S1015   1.803       .  S
C1012      C1013   1.402       .  A
C1013      C1014   1.398       .  A
C1013      H1020   1.085       .  S
C1014      S1016   1.801       .  S
S1015      H1018   1.403       .  S
S1016      H1017   1.406       .  S
C1021      C1022   1.404       .  A
C1021      C2418   1.416       .  A
C1022      C1023   1.405       .  A
C1022      H1031   1.083       .  S
C1023      C1024   1.416       .  A
C1023      S1027   1.810       .  S
C1024      C1025   1.401       .  A
C1025      C2418   1.396       .  A
C1025      H2424   1.084       .  S
C1026      C2413   1.415       .  A
C1026      C2417   1.397       .  A
C1026      S1028   1.804   1_455  S
S1027      H1030   1.407       .  S
S1028      H1029   1.407   1_655  S
H1032      C2417   1.084   1_655  S
C1033      C1034   1.404       .  A
C1033      C1038   1.421       .  A
C1034      C1035   1.395       .  A
C1034      H1043   1.083       .  S
C1035      C1036   1.407       .  A
C1035      S1039   1.809       .  S
C1036      C1037   1.398       .  A
C1037      C1038   1.403       .  A
C1037      H1044   1.083       .  S
C1038      S1040   1.811       .  S
S1039      H1042   1.407       .  S
C1045      C1046   1.408       .  A
C1045      C1050   1.420       .  A
C1046      C1047   1.392       .  A
C1046      H1055   1.083       .  S
C1047      C1048   1.408       .  A
C1047      S1051   1.805       .  S
C1048      C1049   1.400       .  A
C1049      C1050   1.401       .  A
C1049      H1056   1.085       .  S
C1050      S1052   1.796       .  S
S1051      H1054   1.407       .  S
S1052      H1053   1.407       .  S
C1058      C1059   1.401       .  A
C1059      C1060   1.416       .  A
C1059      S1063   1.802       .  S
C1060      C1061   1.401       .  A
C1061      C1062   1.406       .  A
C1061      H1068   1.083       .  S
C1062      S1064   1.809       .  S
S1063      H1066   1.408       .  S
C1069      C1070   1.397       .  A
C1069      C1074   1.409       .  A
C1070      C1071   1.398       .  A
C1070      H1079   1.084       .  S
C1071      C1072   1.420       .  A
C1072      C1073   1.404       .  A
C1073      C1074   1.401       .  A
C1073      H1080   1.084       .  S
C1074      S1076   1.802       .  S
S1075      H1078   1.406       .  S
S1076      H1077   1.408       .  S
C1081      C1082   1.405       .  A
C1081      C1086   1.410       .  A
C1082      C1083   1.402       .  A
C1082      H1091   1.082       .  S
C1083      C1084   1.413       .  A
C1083      S1087   1.801       .  S
C1084      C1085   1.411       .  A
C1085      C1086   1.404       .  A
C1085      H1092   1.084       .  S
C1086      S1088   1.803       .  S
S1087      H1090   1.407       .  S
S1088      H1089   1.406       .  S
C1093      C1094   1.403       .  A
C1093      C1098   1.420       .  A
C1094      C1095   1.394       .  A
C1094      H1103   1.084       .  S
C1095      C1096   1.412       .  A
C1095      S1099   1.805       .  S
C1096      C1097   1.402       .  A
C1097      C1098   1.404       .  A
C1097      H1104   1.084       .  S
C1098      S1100   1.805       .  S
S1099      H1102   1.406       .  S
S1100      H1101   1.408       .  S
C1105      C1106   1.406       .  A
C1105      C1110   1.419       .  A
C1106      C1107   1.397       .  A
C1106      H2507   1.076       .  S
C1107      C1108   1.412       .  A
C1107      S2503   1.802       .  S
C1108      C1109   1.410       .  A
C1109      C1110   1.408       .  A
C1109      H1116   1.082       .  S
C1110      S1112   1.809       .  S
S1111      C2499   1.801   1_455  S
S1111      H1114   1.407       .  S
S1112      H1113   1.407       .  S
H1115      C2498   1.078   1_455  S
C1117      C1118   1.408       .  A
C1117      C1122   1.413       .  A
C1118      C1119   1.412       .  A
C1118      H1127   1.083       .  S
C1119      C1120   1.414       .  A
C1119      S2515   1.806       .  S
C1120      C1121   1.403       .  A
C1121      C1122   1.397       .  A
C1121      H1128   1.083       .  S
C1122      S1124   1.811       .  S
S1123      C2511   1.803       .  S
S1123      H1126   1.407       .  S
S1124      H1125   1.406       .  S
C1129      C1130   1.402       .  A
C1129      C2526   1.410       .  A
C1130      C2523   1.406       .  A
C1130      H1139   1.083       .  S
C1131      C2522   1.406       .  A
C1131      C1132   1.420   1_655  A
C1131      S1135   1.811       .  S
C1132      C1133   1.411       .  A
C1133      C1134   1.413       .  A
C1133      H1140   1.082       .  S
C1134      C2521   1.413   1_455  A
C1134      S1136   1.805       .  S
S1135      H1138   1.406       .  S
S1136      H1137   1.407       .  S
C1141      C1142   1.402       .  A
C1141      C1146   1.418       .  A
C1142      C1143   1.409       .  A
C1142      H1151   1.083       .  S
C1143      C1144   1.419       .  A
C1143      S1147   1.808       .  S
C1144      C1145   1.396       .  A
C1145      C1146   1.393       .  A
C1145      H1152   1.084       .  S
C1146      S1148   1.800       .  S
S1147      H1150   1.407       .  S
S1148      H1149   1.408       .  S
C1153      C1154   1.405       .  A
C1153      C1158   1.408       .  A
C1154      C1155   1.401       .  A
C1154      H1163   1.078       .  S
C1155      C1156   1.410       .  A
C1155      S1159   1.801       .  S
C1156      C1157   1.409       .  A
C1157      C1158   1.397       .  A
C1157      H1164   1.083       .  S
C1158      S1160   1.805       .  S
S1159      H1162   1.407       .  S
S1160      H1161   1.406       .  S
C1165      C1166   1.397       .  A
C1165      C1170   1.413       .  A
C1166      C1167   1.388       .  A
C1166      H1175   1.085       .  S
C1167      C1168   1.414       .  A
C1167      S1171   1.805       .  S
C1168      C1169   1.403       .  A
C1169      C1170   1.400       .  A
C1169      H1176   1.084       .  S
C1170      S1172   1.804       .  S
S1171      H1174   1.406       .  S
S1172      H1173   1.405       .  S
C1177      C1178   1.412       .  A
C1177      C1182   1.416       .  A
C1178      C1179   1.409       .  A
C1178      H1187   1.084   1_565  S
C1179      C1180   1.413       .  A
C1179      S1183   1.804   1_565  S
C1180      C1181   1.407       .  A
C1181      C1182   1.406       .  A
C1181      H1188   1.084       .  S
C1182      S1184   1.803       .  S
S1183      H1186   1.406       .  S
S1184      H1185   1.407       .  S
C1189      C1194   1.411       .  A
C1190      C1191   1.400       .  A
C1190      H1199   1.084       .  S
C1191      S1195   1.803       .  S
C1192      C1193   1.412       .  A
C1193      C1194   1.404       .  A
C1193      H1200   1.083       .  S
C1194      S1196   1.801       .  S
S1195      H1198   1.408       .  S
S1196      H1197   1.404       .  S
C1201      C1202   1.409       .  A
C1201      C1206   1.422       .  A
C1202      C1203   1.396       .  A
C1202      H1211   1.083       .  S
C1203      C1204   1.410       .  A
C1203      S1207   1.804       .  S
C1204      C1205   1.402       .  A
C1205      C1206   1.404       .  A
C1205      H1212   1.083       .  S
C1206      S1208   1.811       .  S
S1207      H1210   1.407   1_565  S
S1208      H1209   1.407       .  S
C1213      C1214   1.411       .  A
C1213      C1218   1.417       .  A
C1214      C1215   1.403       .  A
C1214      H1223   1.082       .  S
C1215      C1216   1.407       .  A
C1215      S1219   1.806       .  S
C1216      C1217   1.401       .  A
C1217      C1218   1.402       .  A
C1217      H1224   1.084       .  S
C1218      S1220   1.802       .  S
S1219      H1222   1.407       .  S
S1220      H1221   1.408       .  S
C1225      C1226   1.400       .  A
C1225      C1230   1.414       .  A
C1226      C1227   1.393       .  A
C1226      H1235   1.084       .  S
C1227      C1228   1.414       .  A
C1227      S1231   1.806       .  S
C1228      C1229   1.402       .  A
C1229      C1230   1.400       .  A
C1229      H1236   1.084       .  S
C1230      S1232   1.800       .  S
S1231      H1234   1.407       .  S
S1232      H1233   1.405       .  S
C1237      C1238   1.405       .  A
C1237      C1242   1.421       .  A
C1238      H1247   1.083       .  S
C1239      C1240   1.410   1_565  A
C1239      S1243   1.803       .  S
C1241      C1242   1.401       .  A
C1241      H1248   1.084       .  S
C1242      S1244   1.801       .  S
S1243      H1246   1.408       .  S
S1244      H1245   1.404       .  S
C1249      C1250   1.410       .  A
C1249      C1254   1.412       .  A
C1250      C1251   1.400       .  A
C1250      H1259   1.083       .  S
C1251      C1252   1.418       .  A
C1251      S1255   1.803       .  S
C1252      C1253   1.414       .  A
C1253      C1254   1.403       .  A
C1253      H1260   1.079       .  S
C1254      S1256   1.802       .  S
S1255      H1258   1.407       .  S
S1256      H1257   1.408       .  S
C1261      C1262   1.404       .  A
C1261      C1266   1.406       .  A
C1262      C1263   1.399       .  A
C1262      H1271   1.085       .  S
C1263      C1264   1.411       .  A
C1263      S1267   1.802       .  S
C1264      C1265   1.411       .  A
C1265      C1266   1.409       .  A
C1265      H1272   1.083       .  S
C1266      S1268   1.805       .  S
S1267      H1270   1.406       .  S
S1268      H1269   1.407       .  S
C1273      C1274   1.414       .  A
C1273      C1278   1.416       .  A
C1274      C2667   1.402       .  A
C1274      H1283   1.084       .  S
C1275      C2666   1.403       .  A
C1275      C1276   1.413       .  A
C1275      S1279   1.801       .  S
C1276      C1277   1.411       .  A
C1277      C2670   1.402       .  A
C1277      H1284   1.081       .  S
C1278      C2669   1.402   1_455  A
C1278      S1280   1.811       .  S
S1279      H1282   1.407       .  S
S1280      H1281   1.407   1_455  S
C1285      C1286   1.405       .  A
C1285      C1290   1.412       .  A
C1286      C1287   1.402       .  A
C1286      H1295   1.084       .  S
C1287      C1288   1.416       .  A
C1287      S1291   1.803       .  S
C1288      C1289   1.410       .  A
C1289      C1290   1.402       .  A
C1289      H1296   1.084       .  S
C1290      S1292   1.801       .  S
S1291      H1294   1.407       .  S
S1292      H1293   1.404       .  S
C1297      C1298   1.402       .  A
C1297      C1302   1.418       .  A
C1298      C1299   1.400       .  A
C1298      H1307   1.083       .  S
C1299      C1300   1.410       .  A
C1299      S1303   1.804       .  S
C1300      C1301   1.400       .  A
C1301      C1302   1.405       .  A
C1301      H1308   1.083       .  S
C1302      S1304   1.809       .  S
S1303      H1306   1.407       .  S
S1304      H1305   1.407       .  S
C1309      C1310   1.410       .  A
C1309      C1314   1.422       .  A
C1310      C1311   1.396       .  A
C1311      C1312   1.408       .  A
C1312      C1313   1.401       .  A
C1313      C1314   1.406       .  A
C1313      H1320   1.083       .  S
C1314      S1316   1.807       .  S
S1316      H1317   1.407       .  S
C1321      C1322   1.405       .  A
C1321      C1326   1.409       .  A
C1322      C2715   1.399       .  A
C1322      H1331   1.084       .  S
C1323      C2714   1.399       .  A
C1323      C1324   1.411       .  A
C1323      S1327   1.805       .  S
C1324      C1325   1.404       .  A
C1325      C2718   1.401   1_455  A
C1325      H1332   1.084       .  S
C1326      C2717   1.399       .  A
C1326      S1328   1.802       .  S
S1327      H1330   1.403       .  S
S1328      H1329   1.407       .  S
C1333      C1334   1.403       .  A
C1333      C1338   1.407       .  A
C1334      C1335   1.399       .  A
C1334      H1343   1.084       .  S
C1335      C1336   1.414       .  A
C1335      S1339   1.803       .  S
C1336      C1337   1.405       .  A
C1337      C1338   1.394       .  A
C1337      H1344   1.083       .  S
C1338      S1340   1.808       .  S
S1339      H1342   1.408       .  S
S1340      H1341   1.408       .  S
C1345      C1346   1.406       .  A
C1345      C1350   1.411       .  A
C1346      C1347   1.401       .  A
C1346      H1355   1.084       .  S
C1347      C1348   1.413       .  A
C1347      S1351   1.803       .  S
C1348      C1349   1.407       .  A
C1349      C1350   1.402       .  A
C1349      H1356   1.078       .  S
C1350      S1352   1.804       .  S
S1351      H1354   1.406       .  S
S1352      H1353   1.406       .  S
C1357      C1358   1.406       .  A
C1357      C1362   1.421       .  A
C1358      C1359   1.396       .  A
C1358      H1367   1.084       .  S
C1359      C1360   1.411       .  A
C1360      C1361   1.401       .  A
C1361      C1362   1.408       .  A
C1361      H1368   1.083       .  S
C1362      S1364   1.810       .  S
S1363      H1366   1.406       .  S
S1364      H1365   1.406       .  S
C1369      C1370   1.402       .  A
C1369      C1374   1.424       .  A
C1370      C1371   1.399       .  A
C1370      H1379   1.084       .  S
C1371      C1372   1.417       .  A
C1371      S1375   1.804       .  S
C1372      C1373   1.401       .  A
C1373      C1374   1.409       .  A
C1373      H1380   1.083       .  S
C1374      S1376   1.810       .  S
S1375      H1378   1.407       .  S
S1376      H1377   1.407       .  S
C1381      C1386   1.411       .  A
C1382      C1383   1.400       .  A
C1382      H1391   1.084       .  S
C1383      S1387   1.803       .  S
C1384      C1385   1.406       .  A
C1385      C1386   1.401       .  A
C1385      H1392   1.084       .  S
C1386      S1388   1.801       .  S
S1387      H1390   1.408   1_554  S
S1388      H1389   1.407       .  S
C1393      N1394   1.358       .  A
C1393      N2094   1.358       .  A
C1393      C2077   1.474       .  S
N1394      C1395   1.356       .  A
C1395      N1396   1.361       .  A
C1395      C2065   1.490       .  S
N1396      C2093   1.363       .  A
C1397      N2092   1.365       .  A
C1397      N1398   1.364       .  A
C1397      C1401   1.483       .  S
N1398      C2089   1.362       .  A
C1399      N1400   1.357       .  A
C1399      N1404   1.353       .  A
C1399      C2056   1.469       .  S
N1400      C1401   1.363       .  A
C1401      N1402   1.368       .  A
N1402      C1403   1.367       .  A
C1403      N1404   1.352       .  A
C1403      C2041   1.487       .  S
C1405      N1406   1.352       .  A
C1405      N1410   1.363       .  A
C1405      C2017   1.476       .  S
N1406      C1407   1.353       .  A
C1407      N1408   1.358       .  A
C1407      C2029   1.474       .  S
N1408      C1409   1.359       .  A
C1409      N1410   1.363       .  A
C1409      C1413   1.475       .  S
C1411      N1412   1.359       .  A
C1411      N1416   1.350       .  A
C1411      C1993   1.481       .  S
N1412      C2109   1.359       .  A
C1413      N2108   1.359       .  A
C1413      N1414   1.359       .  A
N1414      C1415   1.360       .  A
C1415      N2112   1.360       .  A
C1415      C2005   1.493       .  S
N1416      C2111   1.356       .  A
C1417      N1418   1.363       .  A
C1417      N1422   1.355       .  A
C1417      C1972   1.500       .  S
N1418      C1419   1.366       .  A
C1419      N1420   1.363       .  A
C1419      C1425   1.482       .  S
N1420      C1421   1.361       .  A
C1421      N1422   1.353       .  A
C1421      C1981   1.479       .  S
C1423      N1424   1.366       .  A
C1423      N1428   1.355       .  A
C1423      C1945   1.501       .  S
N1424      C1425   1.367       .  A
C1425      N1426   1.361       .  A
N1426      C1427   1.357       .  A
C1427      N1428   1.352       .  A
C1427      C1960   1.471       .  S
O1429     Ni1435   1.953       .  S
O1429      C1450   1.275       .  A
O1430     Ni1453   1.892       .  S
O1430      C1439   1.264       .  A
O1431     Ni1435   1.918       .  S
O1431     Ni1453   1.904       .  S
O1431     Ni1447   1.911       .  S
O1431      H1454   0.966       .  S
C1432      C1969   1.493       .  S
C1432      O1449   1.270       .  A
C1432      O1441   1.280       .  A
O1433     Ni1452   1.944       .  S
O1433      C1439   1.273       .  A
O1434     Ni1452   1.891       .  S
O1434      C1436   1.264       .  A
Ni1435     O1438   1.947       .  S
Ni1435     O1440   1.883       .  S
C1436      C2020   1.462       .  S
C1436      O1446   1.272       .  A
O1437     Ni1453   1.890       .  S
O1437      C1443   1.266       .  A
O1438      C1443   1.281       .  A
C1439      C2044   1.482       .  S
O1440      C1442   1.265       .  A
O1441     Ni1452   1.943       .  S
C1442      C1996   1.463       .  S
C1442      O1448   1.275       .  A
C1443      C1948   1.498       .  S
H1444      O1445   0.966       .  S
O1445     Ni1453   1.903       .  S
O1445     Ni1447   1.905       .  S
O1445     Ni1452   1.911       .  S
O1446     Ni1447   1.937       .  S
Ni1447     O1451   1.890       .  S
Ni1447     O1449   1.900       .  S
O1448     Ni1453   1.941       .  S
C1450      C2068   1.486       .  S
C1450      O1451   1.260       .  A
O1455     Ni1461   1.927       .  S
O1455      C1476   1.272       .  A
O1456     Ni1479   1.889       .  S
O1456      C1465   1.264       .  A
O1457     Ni1461   1.924       .  S
O1457     Ni1479   1.899       .  S
O1457     Ni1473   1.908       .  S
O1457      H1480   0.967       .  S
C1458      C2008   1.471       .  S
C1458      O1475   1.267       .  A
C1458      O1467   1.273       .  A
O1459     Ni1478   1.935       .  S
O1459      C1465   1.272       .  A
O1460     Ni1478   1.909       .  S
O1460      C1462   1.271       .  A
Ni1461     O1464   1.946       .  S
Ni1461     O1466   1.905       .  S
C1462      C1984   1.492       .  S
C1462      O1472   1.275       .  A
O1463     Ni1479   1.894       .  S
O1463      C1469   1.266       .  A
O1464      C1469   1.273       .  A
C1465      C1909   1.491       .  S
O1466      C1468   1.269       .  A
O1467     Ni1478   1.935       .  S
C1468      C1933   1.492       .  S
C1468      O1474   1.275       .  A
C1469      C1921   1.471       .  S
H1470      O1471   0.965       .  S
O1471     Ni1479   1.909       .  S
O1471     Ni1473   1.906       .  S
O1471     Ni1478   1.925       .  S
O1472     Ni1473   1.939       .  S
Ni1473     O1477   1.898       .  S
Ni1473     O1475   1.893       .  S
O1474     Ni1479   1.946       .  S
C1476      C2053   1.488       .  S
C1476      O1477   1.265       .  A
C1481      N2178   1.363       .  A
C1481      N1486   1.356       .  A
C1481      C1888   1.495       .  S
N1482      C2177   1.363       .  A
N1482      C2179   1.365       .  A
C1483      N2178   1.363       .  A
C1483      N1484   1.360       .  A
C1483      C1489   1.477       .  S
N1484      C1485   1.359       .  A
C1485      N1486   1.357       .  A
C1485      C1900   1.482       .  S
C1487      N1488   1.361       .  A
C1487      N1492   1.355       .  A
C1487      C1873   1.484       .  S
N1488      C1489   1.362       .  A
C1489      N1490   1.362       .  A
N1490      C1491   1.362       .  A
C1491      N1492   1.356       .  A
C1491      C1936   1.481       .  S
C1493      N1494   1.352       .  A
C1493      N1498   1.359       .  A
C1493      C1864   1.472       .  S
N1494      C1495   1.352       .  A
C1495      N1496   1.360       .  A
C1495      C1852   1.480       .  S
N1496      C1497   1.362       .  A
C1497      N1498   1.364       .  A
C1497      C1501   1.474       .  S
C1499      N1500   1.360       .  A
C1499      N1504   1.354       .  A
C1499      C1924   1.472       .  S
N1500      C1501   1.364       .  A
C1501      N1502   1.361       .  A
N1502      C1503   1.359       .  A
C1503      N1504   1.350       .  A
C1503      C1840   1.476       .  S
C1505      N1506   1.355       .  A
C1505      N1510   1.360       .  A
C1505      C1825   1.471   1_655  S
N1506      C1507   1.352       .  A
C1507      N1508   1.358       .  A
C1507      C1813   1.479       .  S
N1508      C1509   1.362       .  A
C1509      N1510   1.362       .  A
C1509      C1515   1.472       .  S
C1511      N1512   1.353       .  A
C1511      N1516   1.354       .  A
C1511      C1912   1.466       .  S
N1512      C1513   1.356       .  A
C1513      N1514   1.364       .  A
C1513      C1804   1.491       .  S
N1514      C1515   1.365       .  A
C1515      N1516   1.360       .  A
O1517     Ni1523   1.928       .  S
O1517      C1538   1.273       .  A
O1518      C1527   1.267       .  A
O1519     Ni1523   1.899       .  S
O1519     Ni2237   1.884       .  S
O1519     Ni1535   1.914       .  S
O1519      H1542   0.964       .  S
C1520      C1816   1.488       .  S
C1520      O1537   1.273       .  A
C1520      O1529   1.279       .  A
O1521     Ni2236   1.925   1_545  S
O1521      C1527   1.270       .  A
O1522     Ni1540   1.900       .  S
O1522      C1524   1.269       .  A
Ni1523     O2222   1.929       .  S
Ni1523     O1528   1.907       .  S
C1524      C1876   1.473       .  S
O1525     Ni1541   1.914   1_545  S
O1525      C1531   1.276       .  A
O1526     Ni2219   1.930   1_545  S
O1526      C1531   1.278       .  A
C1527      C1849   1.467       .  S
O1528      C1530   1.271       .  A
C1530      C1885   1.484       .  S
C1530      O2232   1.277       .  A
C1531      C1801   1.495       .  S
H1532      O1533   0.966       .  S
O1533     Ni2237   1.919       .  S
O1533     Ni1535   1.892       .  S
O1534     Ni1535   1.946       .  S
Ni1535     O1539   1.895       .  S
Ni1535     O1537   1.907       .  S
O1536     Ni1541   1.948       .  S
O1536      C2226   1.278       .  A
C1538      C1837   1.478       .  S
C1538      O1539   1.268       .  A
Ni1540     O2217   1.930       .  S
Ni1541     O2215   1.890       .  S
Ni1541     O2229   1.918       .  S
C1543      N1544   1.353       .  A
C1543      N1548   1.362       .  A
C1543      C1792   1.476       .  S
N1544      C1545   1.351       .  A
C1545      N1546   1.364       .  A
C1545      C1780   1.483       .  S
N1546      C1547   1.367       .  A
C1547      N1548   1.366       .  A
C1547      C1551   1.486       .  S
C1549      N1550   1.362       .  A
C1549      N1554   1.353       .  A
C1549      C1765   1.478       .  S
N1550      C1551   1.367       .  A
C1551      N1552   1.368       .  A
N1552      C1553   1.365       .  A
C1553      N1554   1.351       .  A
C1553      C1753   1.497       .  S
C1555      N1556   1.353       .  A
C1555      N1560   1.357       .  A
C1555      C2425   1.482       .  S
N1556      C1557   1.358       .  A
C1557      N1558   1.360       .  A
C1557      C1741   1.476       .  S
N1558      C1559   1.358       .  A
C1559      N1560   1.356       .  A
C1559      C1565   1.468       .  S
C1561      N1562   1.354       .  A
C1561      N1566   1.362       .  A
C1561      C1705   1.475       .  S
N1562      C1563   1.355   1_655  A
C1563      C1717   1.471       .  S
N1564      C1565   1.358       .  A
C1567      N1568   1.361       .  A
C1567      N1572   1.356       .  A
C1567      C1681   1.498       .  S
N1568      C1569   1.362       .  A
C1569      N1570   1.360       .  A
C1569      C1577   1.476       .  S
N1570      C1571   1.359       .  A
C1571      N1572   1.356       .  A
C1571      C1693   1.479       .  S
C1573      N1574   1.348       .  A
C1573      N1578   1.360       .  A
C1573      C1657   1.475       .  S
C1575      N1576   1.358       .  A
C1575      C1669   1.467       .  S
N1576      C1577   1.364       .  A
O1579     Ni1585   1.944       .  S
O1579      C1600   1.272       .  A
O1580     Ni1603   1.905       .  S
O1580      C1589   1.269       .  A
O1581     Ni1585   1.906       .  S
O1581     Ni1603   1.907       .  S
O1581     Ni1597   1.900       .  S
O1581      H1604   0.966       .  S
C1582      C1684   1.494       .  S
C1582      O1599   1.267       .  A
C1582      O1591   1.281       .  A
O1583     Ni1602   1.951       .  S
O1583      C1589   1.276       .  A
O1584     Ni1602   1.882       .  S
O1584      C1586   1.264       .  A
Ni1585     O1588   1.925       .  S
Ni1585     O1590   1.890       .  S
C1586      C1732   1.454       .  S
C1586      O1596   1.270       .  A
O1587     Ni1603   1.900       .  S
O1587      C1593   1.269       .  A
O1588      C1593   1.279       .  A
C1589      C1756   1.499       .  S
O1590      C1592   1.267       .  A
O1591     Ni1602   1.951       .  S
C1592      C1708   1.469       .  S
C1592      O1598   1.279       .  A
C1593      C1660   1.488       .  S
H1594      O1595   0.969       .  S
O1595     Ni1603   1.915       .  S
O1595     Ni1597   1.907       .  S
O1595     Ni1602   1.919       .  S
O1596     Ni1597   1.928       .  S
Ni1597     O1601   1.892       .  S
Ni1597     O1599   1.890       .  S
O1598     Ni1603   1.950       .  S
C1600      C1777   1.480       .  S
C1600      O1601   1.262       .  A
O1605     Ni1611   1.936   1_544  S
O1605      C1626   1.272       .  A
O1606     Ni1629   1.889       .  S
O1606      C1615   1.264       .  A
O1607     Ni2307   1.932       .  S
O1607     Ni1629   1.916       .  S
O1607     Ni1623   1.926   1_556  S
O1607      H1630   0.963       .  S
C1608      C2080   1.477       .  S
C1608      O1625   1.273       .  A
C1608      O1617   1.275       .  A
O1609     Ni1628   1.932       .  S
O1609      C1615   1.271   1_455  A
O1610     Ni1628   1.917   1_654  S
O1610      C1612   1.269       .  A
Ni1611     O2310   1.935       .  S
Ni1611     O1616   1.911   1_565  S
Ni1611     O2303   1.933       .  S
C1612      C1957   1.476       .  S
C1612      O1622   1.269       .  A
O1613     Ni1629   1.916       .  S
O1613      C1619   1.269       .  A
O1614     Ni2307   1.935       .  S
O1614      C1619   1.274       .  A
C1615      C1720   1.469   1_655  S
O1616      C1618   1.269       .  A
C1618      O2320   1.271   1_545  A
C1619      C1768   1.490       .  S
O1621     Ni1629   1.905       .  S
O1621     Ni1623   1.897   1_556  S
O1621     Ni1628   1.925   1_655  S
O1622     Ni1623   1.919       .  S
Ni1623     O2323   1.884       .  S
O1624     Ni1629   1.930       .  S
O1624      C2314   1.273       .  A
C1626      C2032   1.467       .  S
C1626      O1627   1.260       .  A
O1627     Ni2319   1.882   1_545  S
O1631     Ni1637   1.938       .  S
O1631      C1652   1.273       .  A
O1632     Ni1655   1.900       .  S
O1632      C1641   1.266       .  A
O1633     Ni1637   1.925       .  S
O1633     Ni1655   1.902       .  S
O1633     Ni1649   1.906       .  S
O1633      H1656   0.966       .  S
C1634      C1861   1.471       .  S
C1634      O1651   1.266       .  A
C1634      O1643   1.272       .  A
O1635     Ni1654   1.929       .  S
O1635      C1641   1.273       .  A
O1636     Ni1654   1.902       .  S
O1636      C1638   1.270       .  A
Ni1637     O1640   1.937       .  S
Ni1637     O1642   1.913       .  S
C1638      C1897   1.493       .  S
C1638      O1648   1.277       .  A
O1639     Ni1655   1.899       .  S
O1639      C1645   1.268       .  A
O1640      C1645   1.272       .  A
C1641      C1789   1.489       .  S
O1642      C1644   1.273       .  A
O1643     Ni1654   1.945       .  S
C1644      C1672   1.485       .  S
C1644      O1650   1.274       .  A
C1645      C1744   1.465       .  S
H1646      O1647   0.965       .  S
O1647     Ni1655   1.915       .  S
O1647     Ni1649   1.902       .  S
O1647     Ni1654   1.921       .  S
O1648     Ni1649   1.950       .  S
Ni1649     O1653   1.889       .  S
Ni1649     O1651   1.900       .  S
O1650     Ni1655   1.932       .  S
C1652      C1828   1.496       .  S
C1652      O1653   1.266       .  A
C1657      C1658   1.402       .  A
C1657      C1662   1.414       .  A
C1658      C1659   1.408       .  A
C1658      H1667   1.083       .  S
C1659      C1660   1.421       .  A
C1659      S1663   1.807       .  S
C1660      C1661   1.403       .  A
C1661      C1662   1.391       .  A
C1661      H1668   1.082       .  S
C1662      S1664   1.812       .  S
S1663      H1666   1.407       .  S
S1664      H1665   1.408       .  S
C1669      C1670   1.403       .  A
C1669      C1674   1.409       .  A
C1670      C1671   1.400       .  A
C1670      H1679   1.084       .  S
C1671      C1672   1.414       .  A
C1671      S1675   1.801       .  S
C1672      C1673   1.409       .  A
C1673      C1674   1.396       .  A
C1673      H1680   1.084       .  S
C1674      S1676   1.803       .  S
S1675      H1678   1.407       .  S
S1676      H1677   1.405       .  S
C1681      C1682   1.413       .  A
C1681      C1686   1.416       .  A
C1682      C1683   1.403       .  A
C1682      H1691   1.083       .  S
C1683      C1684   1.410       .  A
C1683      S1687   1.801       .  S
C1684      C1685   1.411       .  A
C1685      C1686   1.399       .  A
C1685      H1692   1.082       .  S
C1686      S1688   1.804       .  S
S1687      H1690   1.408       .  S
S1688      H1689   1.408       .  S
C1693      C1694   1.407       .  A
C1693      C1698   1.414       .  A
C1694      C1695   1.399       .  A
C1694      H1703   1.084       .  S
C1695      C1696   1.407       .  A
C1695      S1699   1.803       .  S
C1697      H1704   1.085       .  S
S1699      H1702   1.405       .  S
S1700      H1701   1.406       .  S
C1705      C1706   1.403       .  A
C1705      C1710   1.411       .  A
C1706      C1707   1.399       .  A
C1706      H1715   1.084       .  S
C1707      C1708   1.410       .  A
C1707      S1711   1.802       .  S
C1708      C1709   1.405       .  A
C1709      C1710   1.402       .  A
C1709      H1716   1.084       .  S
C1710      S1712   1.803       .  S
S1711      H1714   1.405       .  S
S1712      H1713   1.408   1_655  S
C1717      C1718   1.403       .  A
C1718      C1719   1.400       .  A
C1718      H1727   1.083       .  S
C1719      C1720   1.413       .  A
C1719      S1723   1.810       .  S
C1720      C1721   1.401   1_455  A
C1722      S1724   1.804       .  S
S1723      H1726   1.407       .  S
S1724      H1725   1.407       .  S
C1729      C2251   1.469       .  S
C1729      C1730   1.402   1_565  A
C1729      C1734   1.415       .  A
C1730      C1731   1.397       .  A
C1730      H1739   1.083   1_545  S
C1731      C1732   1.405       .  A
C1731      S1735   1.806       .  S
C1732      C1733   1.398       .  A
C1733      C1734   1.399   1_545  A
C1733      H1740   1.083       .  S
C1734      S1736   1.810       .  S
S1735      H1738   1.407       .  S
S1736      H2433   1.407       .  S
H1737      S2432   1.406       .  S
C1741      C1742   1.406       .  A
C1741      C1746   1.416       .  A
C1742      C1743   1.396       .  A
C1742      H1751   1.084       .  S
C1743      C1744   1.407       .  A
C1743      S1747   1.803       .  S
C1744      C1745   1.402       .  A
C1745      C1746   1.398       .  A
C1745      H1752   1.085       .  S
C1746      S1748   1.802       .  S
S1747      H1750   1.407       .  S
S1748      H1749   1.407       .  S
C1753      C2450   1.404       .  A
C1753      C2454   1.426       .  A
C1754      C2449   1.401       .  A
C1754      C1755   1.404       .  A
C1754      H2459   1.084       .  S
C1755      C1756   1.422   1_565  A
C1755      S1759   1.801       .  S
C1756      C1757   1.405       .  A
C1757      C1758   1.411       .  A
C1757      H1764   1.083       .  S
C1758      C2449   1.420   1_545  A
C1758      S1760   1.809       .  S
S1759      H1762   1.406   1_565  S
S1760      H2457   1.407       .  S
H1761      S2456   1.406       .  S
H1763      C2450   1.084       .  S
C1765      C1766   1.403       .  A
C1765      C1770   1.412       .  A
C1766      C1767   1.406       .  A
C1766      H1775   1.084       .  S
C1767      C1768   1.419       .  A
C1767      S2467   1.800       .  S
C1768      C1769   1.405       .  A
C1769      C1770   1.400       .  A
C1769      H1776   1.084       .  S
C1770      S1772   1.805       .  S
S1771      C2463   1.799       .  S
S1771      H1774   1.406       .  S
S1772      H1773   1.407       .  S
C1777      C1778   1.406       .  A
C1777      C1782   1.410       .  A
C1778      C1779   1.400       .  A
C1778      H1787   1.081       .  S
C1779      C1780   1.412       .  A
C1779      S1783   1.803       .  S
C1780      C1781   1.409       .  A
C1781      C1782   1.402       .  A
C1781      H1788   1.084       .  S
C1782      S1784   1.802       .  S
S1783      H1786   1.407       .  S
S1784      H1785   1.407       .  S
C1789      C1790   1.406       .  A
C1789      C1794   1.419       .  A
C1790      C1791   1.395       .  A
C1790      H1799   1.084       .  S
C1791      C1792   1.412       .  A
C1791      S1795   1.805       .  S
C1792      C1793   1.403       .  A
C1793      C1794   1.405       .  A
C1793      H1800   1.084       .  S
C1794      S1796   1.804       .  S
S1795      H1798   1.407       .  S
S1796      H1797   1.408       .  S
C1801      C1802   1.410       .  A
C1801      C1806   1.421       .  A
C1802      C1803   1.403       .  A
C1803      C1804   1.413       .  A
C1804      C1805   1.406       .  A
C1805      C1806   1.402       .  A
C1805      H1812   1.082       .  S
C1806      S1808   1.811       .  S
S1807      H1810   1.407       .  S
S1808      H1809   1.407       .  S
C1813      C1814   1.403       .  A
C1813      C1818   1.413       .  A
C1814      C1815   1.406       .  A
C1814      H1823   1.083       .  S
C1815      C1816   1.416       .  A
C1816      C1817   1.407       .  A
C1817      C1818   1.395       .  A
C1817      H1824   1.084       .  S
C1818      S1820   1.806   1_655  S
S1819      H1822   1.407       .  S
S1820      H1821   1.407       .  S
C1825      C1826   1.400   1_455  A
C1826      H1835   1.083       .  S
C1827      C1828   1.422       .  A
C1827      S1831   1.810       .  S
C1828      C1829   1.411       .  A
C1829      C1830   1.395       .  A
C1829      H1836   1.083       .  S
C1830      S1832   1.801       .  S
S1831      H1834   1.407       .  S
S1832      H1833   1.405       .  S
C1837      C1838   1.403       .  A
C1837      C1842   1.418       .  A
C1838      C1839   1.408       .  A
C1838      H1847   1.083       .  S
C1839      C1840   1.416       .  A
C1839      S1843   1.807       .  S
C1840      C1841   1.396       .  A
C1841      C1842   1.392       .  A
C1841      H1848   1.084       .  S
C1842      S1844   1.802       .  S
S1843      H1846   1.407       .  S
S1844      H1845   1.408       .  S
C1849      C1850   1.403       .  A
C1849      C1854   1.408       .  A
C1850      C1851   1.398       .  A
C1850      H1859   1.083       .  S
C1851      C1852   1.414       .  A
C1851      S1855   1.802       .  S
C1852      C1853   1.408       .  A
C1853      C1854   1.398       .  A
C1853      H1860   1.084       .  S
C1854      S1856   1.804       .  S
S1855      H1858   1.407       .  S
S1856      H1857   1.406       .  S
C1861      C1862   1.400       .  A
C1861      C1866   1.414       .  A
C1862      C1863   1.397       .  A
C1862      H1871   1.084       .  S
C1863      C1864   1.413       .  A
C1863      S1867   1.805       .  S
C1864      C1865   1.402       .  A
C1865      C1866   1.402       .  A
C1865      H1872   1.084       .  S
C1866      S1868   1.801       .  S
S1867      H1870   1.407       .  S
S1868      H1869   1.405       .  S
C1873      C1874   1.409       .  A
C1873      C1878   1.414       .  A
C1874      C1875   1.400       .  A
C1874      H1883   1.084       .  S
C1875      C1876   1.407       .  A
C1875      S1879   1.804       .  S
C1876      C1877   1.406       .  A
C1877      C1878   1.402       .  A
C1877      H1884   1.084       .  S
C1878      S1880   1.804       .  S
S1879      H1882   1.407       .  S
S1880      H1881   1.407       .  S
C1885      C2582   1.406       .  A
C1885      C1890   1.410       .  A
C1886      C2581   1.406   1_545  A
C1886      C1887   1.403       .  A
C1886      H1895   1.084       .  S
C1887      C2584   1.417   1_545  A
C1887      S1891   1.803       .  S
C1888      C2583   1.416       .  A
C1888      C1889   1.413       .  A
C1889      C1890   1.404       .  A
C1889      H1896   1.083       .  S
C1890      S1892   1.800       .  S
S1891      H1894   1.408       .  S
S1892      H1893   1.406       .  S
C1897      C1898   1.407       .  A
C1897      C1902   1.419       .  A
C1898      C1899   1.395       .  A
C1898      H1907   1.083       .  S
C1899      C1900   1.411       .  A
C1899      S1903   1.804       .  S
C1900      C1901   1.405       .  A
C1901      C1902   1.407       .  A
C1901      H1908   1.082       .  S
C1902      S1904   1.809       .  S
S1903      H1906   1.407       .  S
S1904      H1905   1.407       .  S
C1909      C1910   1.411       .  A
C1909      C1914   1.418       .  A
C1910      C1911   1.401       .  A
C1910      H1919   1.082       .  S
C1911      C1912   1.406       .  A
C1911      S1915   1.807       .  S
C1912      C1913   1.398       .  A
C1913      C1914   1.398       .  A
C1913      H1920   1.084       .  S
C1914      S1916   1.802       .  S
S1915      H1918   1.407       .  S
S1916      H1917   1.408       .  S
C1921      C1922   1.400       .  A
C1921      C1926   1.415       .  A
C1922      C1923   1.394       .  A
C1922      H1931   1.084       .  S
C1923      C1924   1.413       .  A
C1923      S1927   1.805       .  S
C1924      C1925   1.402       .  A
C1925      C1926   1.402       .  A
C1925      H1932   1.084       .  S
C1926      S1928   1.801       .  S
S1927      H1930   1.407       .  S
S1928      H1929   1.404       .  S
C1933      C1934   1.408       .  A
C1933      C1938   1.420       .  A
C1934      C2631   1.397   1_545  A
C1934      H1943   1.083       .  S
C1935      C2630   1.399       .  A
C1935      C1936   1.414       .  A
C1935      S1939   1.804       .  S
C1936      C2633   1.401       .  A
C1937      C2632   1.402       .  A
C1937      C1938   1.401       .  A
C1937      H1944   1.084       .  S
C1938      S1940   1.802       .  S
S1939      H1942   1.407       .  S
S1940      H1941   1.406       .  S
C1945      C1946   1.414       .  A
C1945      C1950   1.414       .  A
C1946      C1947   1.402       .  A
C1946      H1955   1.083       .  S
C1947      C1948   1.411       .  A
C1947      S1951   1.801       .  S
C1948      C1949   1.414       .  A
C1949      C1950   1.401       .  A
C1949      H1956   1.082       .  S
C1950      S1952   1.801       .  S
S1951      H1954   1.408       .  S
S1952      H1953   1.408       .  S
C1957      C1958   1.404       .  A
C1957      C1962   1.409       .  A
C1958      C1959   1.395       .  A
C1958      H1967   1.085       .  S
C1959      C1960   1.409       .  A
C1959      S1963   1.802       .  S
C1960      C1961   1.406       .  A
C1961      C1962   1.407       .  A
C1961      H1968   1.083       .  S
C1962      S1964   1.804       .  S
S1963      H1966   1.405       .  S
S1964      H1965   1.407       .  S
C1969      C1970   1.412       .  A
C1969      C1974   1.413       .  A
C1970      H1979   1.084       .  S
C1971      C1972   1.415   1_455  A
C1971      S1975   1.802       .  S
C1972      C1973   1.411       .  A
C1973      H1980   1.081       .  S
C1974      S1976   1.810       .  S
S1975      H1978   1.408   1_455  S
S1976      H1977   1.407       .  S
C1981      C1982   1.404       .  A
C1981      C1986   1.412       .  A
C1982      C1983   1.401       .  A
C1982      H1991   1.084       .  S
C1983      C1984   1.417       .  A
C1983      S1987   1.803       .  S
C1984      C1985   1.409       .  A
C1985      C1986   1.401       .  A
C1985      H1992   1.084       .  S
C1986      S1988   1.800       .  S
S1987      H1990   1.407       .  S
S1988      H1989   1.404       .  S
C1993      C1994   1.402       .  A
C1993      C1998   1.421       .  A
C1994      C1995   1.396       .  A
C1994      H2003   1.083       .  S
C1995      C1996   1.408       .  A
C1995      S1999   1.809       .  S
C1996      C1997   1.398       .  A
C1997      C1998   1.404       .  A
C1997      H2004   1.083       .  S
C1998      S2000   1.810       .  S
S1999      H2002   1.407       .  S
S2000      H2001   1.407       .  S
C2005      C2006   1.410       .  A
C2005      C2010   1.421       .  A
C2006      C2007   1.394       .  A
C2006      H2711   1.083       .  S
C2007      C2008   1.408       .  A
C2007      S2707   1.805       .  S
C2008      C2009   1.401       .  A
C2009      C2010   1.400       .  A
C2009      H2016   1.084       .  S
C2010      S2012   1.800       .  S
S2011      C2703   1.805       .  S
S2011      H2710   1.407       .  S
S2012      H2013   1.408       .  S
H2014      S2707   1.407       .  S
H2015      C2702   1.084       .  S
C2017      C2018   1.408   1_655  A
C2017      C2022   1.410       .  A
C2018      H2027   1.084       .  S
C2019      C2020   1.406       .  A
C2019      S2023   1.801       .  S
C2020      C2021   1.402       .  A
C2021      H2028   1.085       .  S
C2022      S2024   1.802       .  S
S2023      H2026   1.405       .  S
S2024      H2025   1.407       .  S
C2029      C2030   1.406       .  A
C2029      C2034   1.413       .  A
C2030      C2031   1.395       .  A
C2030      H2039   1.084       .  S
C2031      C2032   1.409       .  A
C2031      S2035   1.804       .  S
C2032      C2033   1.403       .  A
C2033      C2034   1.400       .  A
C2033      H2040   1.083   1_545  S
C2034      S2036   1.809   1_545  S
S2035      H2038   1.407       .  S
S2036      H2037   1.407       .  S
C2041      C2042   1.410       .  A
C2041      C2046   1.413       .  A
C2042      C2043   1.403       .  A
C2042      H2051   1.084       .  S
C2043      C2044   1.409       .  A
C2043      S2047   1.802       .  S
C2044      C2045   1.406       .  A
C2045      C2046   1.402       .  A
C2045      H2052   1.081       .  S
C2046      S2048   1.803       .  S
S2047      H2050   1.407       .  S
S2048      H2049   1.407       .  S
C2053      C2054   1.407       .  A
C2053      C2058   1.419       .  A
C2054      C2055   1.393       .  A
C2054      H2063   1.083       .  S
C2055      C2056   1.408       .  A
C2055      S2755   1.804       .  S
C2056      C2057   1.402       .  A
C2057      C2058   1.407       .  A
C2057      H2064   1.083       .  S
C2058      S2060   1.809       .  S
S2059      C2751   1.806       .  S
S2059      H2062   1.407       .  S
S2060      H2061   1.407       .  S
C2065      C2066   1.403       .  A
C2065      C2070   1.418       .  A
C2066      C2067   1.400       .  A
C2066      H2075   1.084       .  S
C2067      C2068   1.416       .  A
C2067      S2071   1.804       .  S
C2068      C2069   1.406       .  A
C2069      C2070   1.409       .  A
C2069      H2076   1.083       .  S
C2070      S2072   1.810       .  S
S2071      H2074   1.408       .  S
S2072      H2073   1.407       .  S
C2077      C2774   1.401       .  A
C2077      C2082   1.413       .  A
C2078      C2773   1.403       .  A
C2078      C2079   1.400       .  A
C2078      H2087   1.084       .  S
C2079      C2776   1.414       .  A
C2079      S2083   1.804       .  S
C2080      C2775   1.413       .  A
C2080      C2081   1.405       .  A
C2081      C2082   1.402       .  A
C2081      H2088   1.084       .  S
C2082      S2084   1.800       .  S
S2083      H2086   1.407       .  S
S2084      H2085   1.405       .  S
C2089      N2090   1.355       .  A
C2089      C2773   1.476       .  S
N2090      C2091   1.353   1_545  A
C2091      N2092   1.363   1_565  A
C2091      C2761   1.491       .  S
C2093      N2094   1.360       .  A
C2093      C2097   1.474       .  S
C2095      N2096   1.357       .  A
C2095      N2100   1.352       .  A
C2095      C2752   1.470       .  S
N2096      C2097   1.362       .  A
C2097      N2098   1.366       .  A
N2098      C2099   1.362       .  A
C2099      N2100   1.352       .  A
C2099      C2737   1.480       .  S
C2101      N2102   1.357       .  A
C2101      N2106   1.360       .  A
C2101      C2713   1.475       .  S
N2102      C2103   1.357       .  A
C2103      N2104   1.360       .  A
C2103      C2725   1.478       .  S
N2104      C2105   1.360       .  A
C2105      N2106   1.359       .  A
C2105      C2109   1.474       .  S
C2107      N2108   1.359       .  A
C2107      N2112   1.353       .  A
C2107      C2689   1.482   1_545  S
C2109      N2110   1.362       .  A
N2110      C2111   1.361       .  A
C2111      C2701   1.487       .  S
C2113      N2114   1.364       .  A
C2113      N2118   1.353       .  A
C2113      C2668   1.498       .  S
N2114      C2115   1.367       .  A
C2115      N2116   1.370       .  A
C2115      C2121   1.492       .  S
N2116      C2117   1.366       .  A
C2117      N2118   1.350       .  A
C2117      C2677   1.485       .  S
C2119      N2120   1.366       .  A
C2119      N2124   1.353       .  A
C2119      C2641   1.496       .  S
N2120      C2121   1.368       .  A
C2121      N2122   1.368       .  A
N2122      C2123   1.364       .  A
C2123      N2124   1.350       .  A
C2123      C2656   1.479       .  S
O2125     Ni2131   1.946       .  S
O2125      C2146   1.276       .  A
O2126     Ni2149   1.896       .  S
O2126      C2135   1.267       .  A
O2127     Ni2131   1.903       .  S
O2127     Ni2149   1.896       .  S
O2127     Ni2143   1.909       .  S
O2127      H2150   0.967       .  S
C2128      C2665   1.497       .  S
C2128      O2145   1.271       .  A
C2128      O2137   1.279       .  A
O2129     Ni2148   1.940       .  S
O2129      C2135   1.273       .  A
O2130     Ni2148   1.893       .  S
O2130      C2132   1.267       .  A
Ni2131     O2134   1.947       .  S
Ni2131     O2136   1.883       .  S
C2132      C2716   1.465       .  S
C2132      O2142   1.277       .  A
O2133     Ni2149   1.902       .  S
O2133      C2139   1.272       .  A
O2134      C2139   1.281       .  A
C2135      C2740   1.482       .  S
O2136      C2138   1.265       .  A
O2137     Ni2148   1.935       .  S
C2138      C2692   1.467       .  S
C2138      O2144   1.278       .  A
C2139      C2644   1.499       .  S
H2140      O2141   0.965       .  S
O2141     Ni2149   1.913       .  S
O2141     Ni2143   1.896       .  S
O2141     Ni2148   1.906       .  S
O2142     Ni2143   1.938       .  S
Ni2143     O2147   1.894       .  S
Ni2143     O2145   1.905       .  S
O2144     Ni2149   1.952       .  S
C2146      C2764   1.487       .  S
C2146      O2147   1.267       .  A
O2151     Ni2157   1.938       .  S
O2151      C2172   1.275       .  A
O2152     Ni2175   1.894       .  S
O2152      C2161   1.266       .  A
O2153     Ni2157   1.927       .  S
O2153     Ni2175   1.899       .  S
O2153     Ni2169   1.905       .  S
O2153      H2176   0.964       .  S
C2154      C2704   1.468       .  S
C2154      O2171   1.264       .  A
C2154      O2163   1.274       .  A
O2155     Ni2174   1.947       .  S
O2155      C2161   1.277       .  A
O2156     Ni2174   1.917       .  S
O2156      C2158   1.274       .  A
Ni2157     O2160   1.947       .  S
Ni2157     O2162   1.912       .  S
C2158      C2680   1.498       .  S
C2158      O2168   1.278       .  A
O2159     Ni2175   1.888       .  S
O2159      C2165   1.265       .  A
O2160      C2165   1.273       .  A
C2161      C2605   1.500       .  S
O2162      C2164   1.273       .  A
O2163     Ni2174   1.947       .  S
C2164      C2629   1.494       .  S
C2164      O2170   1.276       .  A
C2165      C2617   1.466       .  S
H2166      O2167   0.966       .  S
O2167     Ni2175   1.907       .  S
O2167     Ni2169   1.897       .  S
O2167     Ni2174   1.922       .  S
O2168     Ni2169   1.945       .  S
Ni2169     O2173   1.885       .  S
Ni2169     O2171   1.886       .  S
O2170     Ni2175   1.945       .  S
C2172      C2749   1.486       .  S
C2172      O2173   1.262       .  A
C2177      N2182   1.356       .  A
C2177      C2584   1.501       .  S
C2179      N2180   1.362       .  A
C2179      C2185   1.483       .  S
N2180      C2181   1.362       .  A
C2181      N2182   1.359       .  A
C2181      C2596   1.484       .  S
C2183      N2184   1.365       .  A
C2183      N2188   1.353       .  A
C2183      C2569   1.478       .  S
N2184      C2185   1.367       .  A
C2185      N2186   1.361       .  A
N2186      C2187   1.359       .  A
C2187      N2188   1.356       .  A
C2187      C2632   1.478   1_565  S
C2189      N2190   1.352       .  A
C2189      N2194   1.362       .  A
C2189      C2560   1.475       .  S
N2190      C2191   1.349       .  A
C2191      N2192   1.361       .  A
C2191      C2548   1.479       .  S
N2192      C2193   1.366       .  A
C2193      N2194   1.365       .  A
C2193      C2197   1.480       .  S
C2195      N2196   1.357       .  A
C2195      N2200   1.353       .  A
C2195      C2620   1.467       .  S
N2196      C2197   1.361       .  A
C2197      N2198   1.366       .  A
N2198      C2199   1.366       .  A
C2199      N2200   1.350       .  A
C2199      C2536   1.487       .  S
C2201      N2202   1.354       .  A
C2201      N2206   1.367       .  A
C2201      C2521   1.493       .  S
N2202      C2203   1.353       .  A
C2203      N2204   1.361       .  A
C2203      C2509   1.490       .  S
N2204      C2205   1.365       .  A
C2205      N2206   1.371       .  A
C2205      C2211   1.487       .  S
C2207      N2208   1.354       .  A
C2207      N2212   1.362       .  A
C2207      C2608   1.478       .  S
N2208      C2209   1.357       .  A
C2209      N2210   1.365       .  A
C2209      C2500   1.493       .  S
N2210      C2211   1.363       .  A
C2211      N2212   1.366       .  A
O2213     Ni2219   1.929       .  S
O2213      C2234   1.274       .  A
O2214      C2223   1.271       .  A
O2215     Ni2219   1.903       .  S
O2215     Ni2231   1.920       .  S
O2215      H2238   0.966       .  S
C2216      C2512   1.488       .  S
C2216      O2233   1.274       .  A
C2216      O2225   1.280       .  A
O2217      C2223   1.274       .  A
O2218     Ni2236   1.893       .  S
O2218      C2220   1.268       .  A
Ni2219     O2224   1.909       .  S
C2220      C2572   1.480       .  S
O2221     Ni2237   1.915       .  S
O2221      C2227   1.276       .  A
O2222      C2227   1.278       .  A
C2223      C2545   1.475       .  S
O2224      C2226   1.271       .  A
C2226      C2581   1.487       .  S
C2227      C2497   1.493       .  S
H2228      O2229   0.963       .  S
O2229     Ni2231   1.890       .  S
O2230     Ni2231   1.965       .  S
Ni2231     O2235   1.898       .  S
Ni2231     O2233   1.918       .  S
O2232     Ni2237   1.940       .  S
C2234      C2533   1.482       .  S
C2234      O2235   1.270       .  A
C2239      N2240   1.354       .  A
C2239      N2244   1.359       .  A
C2239      C2488   1.477       .  S
N2240      C2241   1.355       .  A
C2241      N2242   1.367       .  A
C2241      C2476   1.497       .  S
N2242      C2243   1.370       .  A
C2243      N2244   1.364       .  A
C2243      C2247   1.487       .  S
C2245      N2246   1.362       .  A
C2245      N2250   1.355       .  A
C2245      C2461   1.474       .  S
N2246      C2247   1.365       .  A
C2247      N2248   1.369       .  A
N2248      C2249   1.365       .  A
C2249      N2250   1.352       .  A
C2249      C2449   1.493       .  S
C2251      N2252   1.350       .  A
C2251      N2256   1.358       .  A
N2252      C2253   1.354       .  A
C2253      N2254   1.360       .  A
C2253      C2437   1.481       .  S
N2254      C2255   1.361       .  A
C2255      N2256   1.358       .  A
C2255      C2261   1.472       .  S
C2257      N2258   1.353       .  A
C2257      N2262   1.362       .  A
C2257      C2401   1.477       .  S
N2258      C2259   1.355   1_655  A
C2259      C2413   1.474       .  S
N2260      C2261   1.361       .  A
C2263      N2264   1.368       .  A
C2263      N2268   1.353       .  A
C2263      C2377   1.495       .  S
N2264      C2265   1.368       .  A
C2265      N2266   1.361       .  A
C2265      C2273   1.483       .  S
N2266      C2267   1.356       .  A
C2267      N2268   1.352       .  A
C2267      C2389   1.483       .  S
C2269      N2270   1.351   1_655  A
C2269      N2274   1.359       .  A
C2269      C2353   1.475       .  S
C2271      N2272   1.363       .  A
C2271      C2365   1.479       .  S
N2272      C2273   1.366       .  A
O2275     Ni2281   1.940       .  S
O2275      C2296   1.272       .  A
O2276     Ni2299   1.898       .  S
O2276      C2285   1.266       .  A
O2277     Ni2281   1.906       .  S
O2277     Ni2299   1.905       .  S
O2277     Ni2293   1.909       .  S
O2277      H2300   0.966       .  S
C2278      C2380   1.500       .  S
C2278      O2295   1.270       .  A
C2278      O2287   1.282       .  A
O2279     Ni2298   1.948       .  S
O2279      C2285   1.276       .  A
O2280     Ni2298   1.885       .  S
O2280      C2282   1.266       .  A
Ni2281     O2284   1.933       .  S
Ni2281     O2286   1.886       .  S
C2282      C2428   1.466       .  S
C2282      O2292   1.277       .  A
O2283     Ni2299   1.906       .  S
O2283      C2289   1.271       .  A
O2284      C2289   1.280       .  A
C2285      C2452   1.485       .  S
O2286      C2288   1.265       .  A
O2287     Ni2298   1.945       .  S
C2288      C2404   1.462       .  S
C2288      O2294   1.276       .  A
C2289      C2356   1.484       .  S
H2290      O2291   0.964       .  S
O2291     Ni2299   1.909       .  S
O2291     Ni2293   1.893       .  S
O2291     Ni2298   1.904       .  S
O2292     Ni2293   1.942       .  S
Ni2293     O2297   1.896       .  S
Ni2293     O2295   1.896       .  S
O2294     Ni2299   1.942       .  S
C2296      C2473   1.482       .  S
C2296      O2297   1.267       .  A
O2301     Ni2307   1.942   1_554  S
O2301      C2322   1.273       .  A
O2302     Ni2325   1.879       .  S
O2302      C2311   1.259   1_655  A
O2303     Ni2325   1.907       .  S
O2303     Ni2319   1.917   1_556  S
O2303      H2326   0.965       .  S
C2304      C2776   1.483       .  S
C2304      O2321   1.277       .  A
C2304      O2313   1.280   1_545  A
O2305     Ni2324   1.947       .  S
O2305      C2311   1.275       .  A
O2306     Ni2324   1.923   1_654  S
O2306      C2308   1.271       .  A
Ni2307     O2312   1.909       .  S
C2308      C2653   1.482       .  S
C2308      O2318   1.271       .  A
O2309     Ni2325   1.906       .  S
O2309      C2315   1.267       .  A
O2310      C2315   1.275       .  A
C2311      C2416   1.474       .  S
O2312      C2314   1.270       .  A
C2315      C2464   1.485       .  S
O2317     Ni2325   1.902       .  S
O2317     Ni2319   1.899   1_556  S
O2317     Ni2324   1.927   1_655  S
O2318     Ni2319   1.925       .  S
O2320     Ni2325   1.925       .  S
C2322      C2728   1.480       .  S
C2322      O2323   1.261       .  A
O2327     Ni2333   1.942       .  S
O2327      C2348   1.274       .  A
O2328     Ni2351   1.896       .  S
O2328      C2337   1.262       .  A
O2329     Ni2333   1.923       .  S
O2329     Ni2351   1.902       .  S
O2329     Ni2345   1.902       .  S
O2329      H2352   0.969       .  S
C2330      C2557   1.471       .  S
C2330      O2347   1.267       .  A
C2330      O2339   1.275       .  A
O2331     Ni2350   1.942       .  S
O2331      C2337   1.274       .  A
O2332     Ni2350   1.907       .  S
O2332      C2334   1.271       .  A
Ni2333     O2336   1.945       .  S
Ni2333     O2338   1.914       .  S
C2334      C2593   1.495       .  S
C2334      O2344   1.275       .  A
O2335     Ni2351   1.881       .  S
O2335      C2341   1.263       .  A
O2336      C2341   1.274       .  A
C2337      C2485   1.494       .  S
O2338      C2340   1.272       .  A
O2339     Ni2350   1.947       .  S
C2340      C2368   1.496       .  S
C2340      O2346   1.275       .  A
C2341      C2440   1.465       .  S
H2342      O2343   0.967       .  S
O2343     Ni2351   1.907       .  S
O2343     Ni2345   1.914       .  S
O2343     Ni2350   1.925       .  S
O2344     Ni2345   1.944       .  S
Ni2345     O2349   1.913       .  S
Ni2345     O2347   1.892       .  S
O2346     Ni2351   1.939       .  S
C2348      C2524   1.509       .  S
C2348      O2349   1.271       .  A
C2353      C2354   1.404       .  A
C2353      C2358   1.410       .  A
C2354      C2355   1.411       .  A
C2354      H2363   1.083       .  S
C2355      C2356   1.417       .  A
C2355      S2359   1.807       .  S
C2356      C2357   1.404       .  A
C2357      C2358   1.395       .  A
C2357      H2364   1.083       .  S
C2358      S2360   1.811       .  S
S2359      H2362   1.407       .  S
S2360      H2361   1.406       .  S
C2365      C2366   1.405       .  A
C2365      C2370   1.411       .  A
C2366      C2367   1.402       .  A
C2366      H2375   1.084       .  S
C2367      C2368   1.417       .  A
C2367      S2371   1.802       .  S
C2368      C2369   1.411       .  A
C2369      C2370   1.401       .  A
C2369      H2376   1.084       .  S
C2370      S2372   1.801       .  S
S2371      H2374   1.408       .  S
S2372      H2373   1.405       .  S
C2377      C2378   1.412       .  A
C2377      C2382   1.411       .  A
C2378      C2379   1.400       .  A
C2378      H2387   1.083       .  S
C2379      C2380   1.415       .  A
C2379      S2383   1.801       .  S
C2380      C2381   1.416       .  A
C2381      C2382   1.402       .  A
C2381      H2388   1.081       .  S
C2382      S2384   1.802       .  S
S2383      H2386   1.408       .  S
S2384      H2385   1.407       .  S
C2389      C2390   1.410       .  A
C2389      C2394   1.416       .  A
C2390      C2391   1.398       .  A
C2390      H2399   1.084       .  S
C2391      C2392   1.407       .  A
C2391      S2395   1.806       .  S
C2393      H2400   1.085       .  S
S2395      H2398   1.404       .  S
S2396      H2397   1.408       .  S
C2401      C2402   1.407       .  A
C2401      C2406   1.412       .  A
C2402      C2403   1.400       .  A
C2402      H2411   1.084       .  S
C2403      C2404   1.409       .  A
C2403      S2407   1.802       .  S
C2404      C2405   1.400       .  A
C2405      C2406   1.396       .  A
C2405      H2412   1.085       .  S
C2406      S2408   1.800       .  S
S2407      H2410   1.405       .  S
S2408      H2409   1.407   1_655  S
C2413      C2414   1.402       .  A
C2414      C2415   1.402       .  A
C2414      H2423   1.083       .  S
C2415      C2416   1.416       .  A
C2415      S2419   1.811       .  S
C2416      C2417   1.400       .  A
C2418      S2420   1.804       .  S
S2419      H2422   1.407       .  S
S2420      H2421   1.407       .  S
C2425      C2426   1.403       .  A
C2425      C2430   1.420       .  A
C2426      C2427   1.396       .  A
C2426      H2435   1.083       .  S
C2427      C2428   1.409       .  A
C2427      S2431   1.809       .  S
C2428      C2429   1.400       .  A
C2429      C2430   1.406       .  A
C2429      H2436   1.083       .  S
C2430      S2432   1.810       .  S
S2431      H2434   1.407       .  S
C2437      C2438   1.407       .  A
C2437      C2442   1.416       .  A
C2438      C2439   1.392       .  A
C2438      H2447   1.084       .  S
C2439      C2440   1.409       .  A
C2439      S2443   1.805       .  S
C2440      C2441   1.400       .  A
C2441      C2442   1.399       .  A
C2441      H2448   1.084       .  S
C2442      S2444   1.798       .  S
S2443      H2446   1.407       .  S
S2444      H2445   1.408       .  S
C2450      C2451   1.401       .  A
C2451      C2452   1.416       .  A
C2451      S2455   1.803       .  S
C2452      C2453   1.400       .  A
C2453      C2454   1.409       .  A
C2453      H2460   1.083       .  S
C2454      S2456   1.812       .  S
S2455      H2458   1.407       .  S
C2461      C2462   1.401       .  A
C2461      C2466   1.411       .  A
C2462      C2463   1.404       .  A
C2462      H2471   1.084       .  S
C2463      C2464   1.419       .  A
C2464      C2465   1.403       .  A
C2465      C2466   1.397       .  A
C2465      H2472   1.084       .  S
C2466      S2468   1.803       .  S
S2467      H2470   1.406       .  S
S2468      H2469   1.407       .  S
C2473      C2474   1.406       .  A
C2473      C2478   1.409       .  A
C2474      C2475   1.405       .  A
C2474      H2483   1.083       .  S
C2475      C2476   1.416       .  A
C2475      S2479   1.801       .  S
C2476      C2477   1.412       .  A
C2477      C2478   1.404       .  A
C2477      H2484   1.084       .  S
C2478      S2480   1.804       .  S
S2479      H2482   1.406       .  S
S2480      H2481   1.405       .  S
C2485      C2486   1.406       .  A
C2485      C2490   1.423       .  A
C2486      C2487   1.397       .  A
C2486      H2495   1.083       .  S
C2487      C2488   1.411       .  A
C2487      S2491   1.804       .  S
C2488      C2489   1.402       .  A
C2489      C2490   1.406       .  A
C2489      H2496   1.084       .  S
C2490      S2492   1.805       .  S
S2491      H2494   1.407       .  S
S2492      H2493   1.407       .  S
C2497      C2498   1.407       .  A
C2497      C2502   1.418       .  A
C2498      C2499   1.398       .  A
C2499      C2500   1.412       .  A
C2500      C2501   1.409       .  A
C2501      C2502   1.407       .  A
C2501      H2508   1.082       .  S
C2502      S2504   1.810       .  S
S2503      H2506   1.407       .  S
S2504      H2505   1.406       .  S
C2509      C2510   1.408       .  A
C2509      C2514   1.419       .  A
C2510      C2511   1.411       .  A
C2510      H2519   1.083       .  S
C2511      C2512   1.415       .  A
C2512      C2513   1.401       .  A
C2513      C2514   1.394       .  A
C2513      H2520   1.084       .  S
C2514      S2516   1.804   1_655  S
S2515      H2518   1.407       .  S
S2516      H2517   1.408       .  S
C2521      C2522   1.404       .  A
C2522      H2531   1.083       .  S
C2523      C2524   1.424       .  A
C2523      S2527   1.811       .  S
C2524      C2525   1.414       .  A
C2525      C2526   1.412       .  A
C2525      H2532   1.082       .  S
C2526      S2528   1.805       .  S
S2527      H2530   1.407       .  S
S2528      H2529   1.407       .  S
C2533      C2534   1.402       .  A
C2533      C2538   1.417       .  A
C2534      C2535   1.412       .  A
C2534      H2543   1.083       .  S
C2535      C2536   1.424       .  A
C2535      S2539   1.809       .  S
C2536      C2537   1.397       .  A
C2537      C2538   1.393       .  A
C2537      H2544   1.084       .  S
C2538      S2540   1.802       .  S
S2539      H2542   1.407       .  S
S2540      H2541   1.408       .  S
C2545      C2546   1.403       .  A
C2545      C2550   1.410       .  A
C2546      C2547   1.400       .  A
C2546      H2555   1.077       .  S
C2547      C2548   1.410       .  A
C2547      S2551   1.801       .  S
C2548      C2549   1.407       .  A
C2549      C2550   1.399       .  A
C2549      H2556   1.083       .  S
C2550      S2552   1.804       .  S
S2551      H2554   1.407       .  S
S2552      H2553   1.406       .  S
C2557      C2558   1.399       .  A
C2557      C2562   1.414       .  A
C2558      C2559   1.394       .  A
C2558      H2567   1.084       .  S
C2559      C2560   1.416       .  A
C2559      S2563   1.805       .  S
C2560      C2561   1.403       .  A
C2561      C2562   1.403       .  A
C2561      H2568   1.084       .  S
C2562      S2564   1.801       .  S
S2563      H2566   1.406       .  S
S2564      H2565   1.405       .  S
C2569      C2570   1.401       .  A
C2569      C2574   1.416       .  A
C2570      C2571   1.400       .  A
C2570      H2579   1.084   1_565  S
C2571      C2572   1.416       .  A
C2571      S2575   1.806   1_565  S
C2572      C2573   1.404       .  A
C2573      C2574   1.408       .  A
C2573      H2580   1.084       .  S
C2574      S2576   1.806       .  S
S2575      H2578   1.407       .  S
S2576      H2577   1.403       .  S
C2581      C2586   1.411       .  A
C2582      C2583   1.400       .  A
C2582      H2591   1.084       .  S
C2583      S2587   1.803       .  S
C2584      C2585   1.414       .  A
C2585      C2586   1.406       .  A
C2585      H2592   1.083       .  S
C2586      S2588   1.800       .  S
S2587      H2590   1.408       .  S
S2588      H2589   1.405       .  S
C2593      C2594   1.407       .  A
C2593      C2598   1.422       .  A
C2594      C2595   1.395       .  A
C2594      H2603   1.083       .  S
C2595      C2596   1.412       .  A
C2595      S2599   1.804       .  S
C2596      C2597   1.404       .  A
C2597      C2598   1.408       .  A
C2597      H2604   1.083       .  S
C2598      S2600   1.809       .  S
S2599      H2602   1.407       .  S
S2600      H2601   1.407       .  S
C2605      C2606   1.412       .  A
C2605      C2610   1.418       .  A
C2606      C2607   1.405       .  A
C2606      H2615   1.082       .  S
C2607      C2608   1.407       .  A
C2607      S2611   1.807       .  S
C2608      C2609   1.402       .  A
C2609      C2610   1.404       .  A
C2609      H2616   1.084       .  S
C2610      S2612   1.801       .  S
S2611      H2614   1.407       .  S
S2612      H2613   1.408       .  S
C2617      C2618   1.399       .  A
C2617      C2622   1.414       .  A
C2618      C2619   1.391       .  A
C2618      H2627   1.084       .  S
C2619      C2620   1.412       .  A
C2619      S2623   1.805       .  S
C2620      C2621   1.403       .  A
C2621      C2622   1.401       .  A
C2621      H2628   1.084       .  S
C2622      S2624   1.800       .  S
S2623      H2626   1.407       .  S
S2624      H2625   1.405       .  S
C2629      C2630   1.407       .  A
C2629      C2634   1.422       .  A
C2630      H2639   1.083       .  S
C2631      C2632   1.412   1_565  A
C2631      S2635   1.805       .  S
C2633      C2634   1.400       .  A
C2633      H2640   1.084       .  S
C2634      S2636   1.800       .  S
S2635      H2638   1.407       .  S
S2636      H2637   1.405       .  S
C2641      C2642   1.412       .  A
C2641      C2646   1.412       .  A
C2642      C2643   1.401       .  A
C2642      H2651   1.083       .  S
C2643      C2644   1.416       .  A
C2643      S2647   1.803       .  S
C2644      C2645   1.413       .  A
C2645      C2646   1.402       .  A
C2645      H2652   1.080       .  S
C2646      S2648   1.802       .  S
S2647      H2650   1.407       .  S
S2648      H2649   1.407       .  S
C2653      C2654   1.406       .  A
C2653      C2658   1.408       .  A
C2654      C2655   1.400       .  A
C2654      H2663   1.085       .  S
C2655      C2656   1.411       .  A
C2655      S2659   1.802       .  S
C2656      C2657   1.409       .  A
C2657      C2658   1.409       .  A
C2657      H2664   1.083       .  S
C2658      S2660   1.805       .  S
S2659      H2662   1.407       .  S
S2660      H2661   1.407       .  S
C2665      C2666   1.414       .  A
C2665      C2670   1.417       .  A
C2666      H2675   1.084       .  S
C2667      C2668   1.413   1_455  A
C2667      S2671   1.803       .  S
C2668      C2669   1.412       .  A
C2669      H2676   1.081       .  S
C2670      S2672   1.812       .  S
S2671      H2674   1.407   1_455  S
S2672      H2673   1.407       .  S
C2677      C2678   1.406       .  A
C2677      C2682   1.412       .  A
C2678      C2679   1.404       .  A
C2678      H2687   1.084       .  S
C2679      C2680   1.417       .  A
C2679      S2683   1.802       .  S
C2680      C2681   1.412       .  A
C2681      C2682   1.404       .  A
C2681      H2688   1.084       .  S
C2682      S2684   1.801       .  S
S2683      H2686   1.407       .  S
S2684      H2685   1.404       .  S
C2689      C2690   1.402       .  A
C2689      C2694   1.418       .  A
C2690      C2691   1.399       .  A
C2690      H2699   1.083       .  S
C2691      C2692   1.408       .  A
C2691      S2695   1.805       .  S
C2692      C2693   1.401       .  A
C2693      C2694   1.406       .  A
C2693      H2700   1.083       .  S
C2694      S2696   1.809       .  S
S2695      H2698   1.407       .  S
S2696      H2697   1.407       .  S
C2701      C2702   1.407       .  A
C2701      C2706   1.419       .  A
C2702      C2703   1.391       .  A
C2703      C2704   1.407       .  A
C2704      C2705   1.403       .  A
C2705      C2706   1.406       .  A
C2705      H2712   1.083       .  S
C2706      S2708   1.807       .  S
S2708      H2709   1.407       .  S
C2713      C2714   1.404   1_655  A
C2713      C2718   1.412       .  A
C2714      H2723   1.084       .  S
C2715      C2716   1.412       .  A
C2715      S2719   1.808       .  S
C2716      C2717   1.404       .  A
C2717      H2724   1.085       .  S
C2718      S2720   1.804       .  S
S2719      H2722   1.400       .  S
S2720      H2721   1.406       .  S
C2725      C2726   1.405       .  A
C2725      C2730   1.411       .  A
C2726      C2727   1.402       .  A
C2726      H2735   1.084       .  S
C2727      C2728   1.413       .  A
C2727      S2731   1.803       .  S
C2728      C2729   1.406       .  A
C2729      C2730   1.401       .  A
C2729      H2736   1.083       .  S
C2730      S2732   1.809       .  S
S2731      H2734   1.408       .  S
S2732      H2733   1.407       .  S
C2737      C2738   1.406       .  A
C2737      C2742   1.412       .  A
C2738      C2739   1.400       .  A
C2738      H2747   1.084       .  S
C2739      C2740   1.412       .  A
C2739      S2743   1.803       .  S
C2740      C2741   1.407       .  A
C2741      C2742   1.402       .  A
C2741      H2748   1.081       .  S
C2742      S2744   1.802       .  S
S2743      H2746   1.406       .  S
S2744      H2745   1.406       .  S
C2749      C2750   1.405       .  A
C2749      C2754   1.421       .  A
C2750      C2751   1.395       .  A
C2750      H2759   1.084       .  S
C2751      C2752   1.410       .  A
C2752      C2753   1.400       .  A
C2753      C2754   1.405       .  A
C2753      H2760   1.083       .  S
C2754      S2756   1.810       .  S
S2755      H2758   1.407       .  S
S2756      H2757   1.407       .  S
C2761      C2762   1.401       .  A
C2761      C2766   1.421       .  A
C2762      C2763   1.399       .  A
C2762      H2771   1.084       .  S
C2763      C2764   1.419       .  A
C2763      S2767   1.804       .  S
C2764      C2765   1.403       .  A
C2765      C2766   1.409       .  A
C2765      H2772   1.083       .  S
C2766      S2768   1.809       .  S
S2767      H2770   1.407       .  S
S2768      H2769   1.407       .  S
C2773      C2778   1.411       .  A
C2774      C2775   1.396       .  A
C2774      H2783   1.084       .  S
C2775      S2779   1.804       .  S
C2776      C2777   1.406       .  A
C2777      C2778   1.403       .  A
C2777      H2784   1.084       .  S
C2778      S2780   1.800       .  S
S2779      H2782   1.407   1_554  S
S2780      H2781   1.406       .  S
