geometry optimzed in LAMMPS
_audit_creation_date              2020-11-30 
_audit_creation_method            'lammps2cif' 
_symmetry_space_group_name_H-M    'P1' 
_symmetry_Int_Tables_number       1 
_symmetry_cell_setting            triclinic 
loop_ 
_symmetry_equiv_pos_as_xyz 
  x,y,z 
_cell_length_a                    26.97741238 
_cell_length_b                    36.73304496005586 
_cell_length_c                    38.53866670644833 
_cell_angle_alpha                 90.02241908224822 
_cell_angle_beta                  90.00102862416682 
_cell_angle_gamma                 89.99990007995146 
loop_ 
_atom_site_label 
_atom_site_type_symbol 
_atom_site_fract_x 
_atom_site_fract_y 
_atom_site_fract_z 
_atom_site_charge 
C1          C  0.05613756  0.42458291  0.24161321     0.02800
C2          C  0.06152508  0.39156429  0.22301195    -0.13300
C3          C  0.08039494  0.39297044  0.18892448     0.00300
C4          C  0.09758631  0.42618205  0.17615411    -0.11900
C5          C  0.07984500  0.45828973  0.19037787     0.02800
C6          C  0.06262782  0.45795980  0.22430126    -0.11300
H7          H  0.05060650  0.36586435  0.23445792     0.08400
H8          H  0.11446947  0.42739391  0.15059945     0.05900
H9          H  0.05007735  0.48312904  0.23612938     0.05800
C10         C  0.24225034  0.41642859  0.49463805     0.02800
C11         C  0.26313761  0.44567702  0.01325868    -0.13300
C12         C  0.25552234  0.44978583  0.04916865     0.00300
C13         C  0.22573850  0.42397296  0.06683526    -0.11900
C14         C  0.20400147  0.39459656  0.04842662     0.02800
C15         C  0.21247988  0.39129338  0.01255099    -0.11300
H16         H  0.28732360  0.46473367  0.50003672     0.08400
H17         H  0.22055295  0.42618737  0.09462521     0.05900
H18         H  0.19648594  0.36843741  0.49869645     0.05800
O19         O  0.24340327  0.34183380  0.34970955    -0.81200
O20         O  0.04906735  0.44733773  0.42410791    -0.65900
O21         O  0.27080084  0.40883372  0.37630845    -1.12500
C22         C  0.04027247  0.42652685  0.27785523     1.05700
O23         O  0.04780165  0.49217684  0.38610483    -0.79100
O24         O  0.32843624  0.49674526  0.32815313    -0.66700
Ni25       Ni  0.23784542  0.36657420  0.39349959     1.34900
C26         C  0.28636228  0.48646695  0.31733556     0.84400
O27         O  0.29319407  0.42706952  0.44554314    -0.79700
O28         O  0.22999443  0.38786311  0.43932334    -0.89900
C29         C  0.06040652  0.47943313  0.41540747     0.84000
O30         O  0.29394555  0.33882224  0.40926313    -0.68100
O31         O  0.06041560  0.45149992  0.29598630    -0.87400
C32         C  0.00520950  0.34728103  0.41601269     0.84800
C33         C  0.25550140  0.41031035  0.45745249     1.06400
H34         H  0.05018831  0.40839936  0.35717563     0.38200
O35         O  0.02413870  0.42646138  0.35717020    -1.10100
O36         O  0.27272532  0.45314457  0.31788612    -0.66700
Ni37       Ni  0.30360698  0.40713380  0.33185527     1.26300
O38         O  0.02202456  0.37951178  0.41236910    -0.67000
O39         O  0.00610387  0.40556955  0.28887201    -0.79200
C40         C  0.24498271  0.35093043  0.31774084     0.84200
O41         O  0.25068991  0.38362604  0.30874744    -0.66400
Ni42       Ni  0.05309777  0.47039020  0.34173813     1.27400
Ni43       Ni  0.32632815  0.42659683  0.40158961     1.26100
H44         H  0.24634874  0.42804653  0.37576485     0.38700
C45         C  0.07558029  0.29756831  0.48650798     0.02800
C46         C  0.09646623  0.26831889  0.46788809    -0.13300
C47         C  0.08885226  0.26421034  0.43197764     0.00300
C48         C  0.05907050  0.29002448  0.41431007    -0.11900
C49         C  0.03733433  0.31940136  0.43271810     0.02800
C50         C  0.04581187  0.32270432  0.46859392    -0.11300
H51         H  0.12065091  0.24926153  0.48111110     0.08400
H52         H  0.05388570  0.28781062  0.38651984     0.05900
H53         H  0.02981884  0.34556083  0.48244787     0.05800
C54         C  0.22280495  0.28941395  0.23953459     0.02800
C55         C  0.22819216  0.32243299  0.25813497    -0.13300
C56         C  0.24705973  0.32102778  0.29222321     0.00300
C57         C  0.26424873  0.28781618  0.30499608    -0.11900
C58         C  0.24650923  0.25570794  0.29077181     0.02800
C59         C  0.22929471  0.25603730  0.25684738    -0.11300
H60         H  0.21727445  0.34813269  0.24668774     0.08400
H61         H  0.28112974  0.28660498  0.33055194     0.05900
H62         H  0.21674522  0.23086784  0.24501897     0.05800
O63         O  0.07674174  0.37216650  0.13143639    -0.81200
O64         O  0.21573367  0.26665940  0.05703955    -0.65900
O65         O  0.10413516  0.30516537  0.10483741    -1.12500
C66         C  0.20693933  0.28746995  0.20329254     1.05700
O67         O  0.21446852  0.22182051  0.09504302    -0.79100
O68         O  0.16176651  0.21725200  0.15299222    -0.66700
Ni69       Ni  0.07117983  0.34742519  0.08764607     1.34900
C70         C  0.11969403  0.22753130  0.16381093     0.84400
O71         O  0.12652659  0.28692962  0.03560302    -0.79700
O72         O  0.06332495  0.32613447  0.04182273    -0.89900
C73         C  0.22707346  0.23456400  0.06574068     0.84000
O74         O  0.12727901  0.37517617  0.07188023    -0.68100
O75         O  0.22707980  0.26249547  0.18516241    -0.87400
C76         C  0.17187632  0.36671722  0.06513182     0.84800
C77         C  0.08883219  0.30368752  0.02369368     1.06400
H78         H  0.21685668  0.30559789  0.12397216     0.38200
O79         O  0.19080623  0.28753638  0.12397709    -1.10100
O80         O  0.10605927  0.26085435  0.16326104    -0.66700
Ni81       Ni  0.13694186  0.30686477  0.14929111     1.26300
O82         O  0.18869189  0.33448671  0.06877766    -0.67000
O83         O  0.17277308  0.30842914  0.19227460    -0.79200
C84         C  0.07831923  0.36306899  0.16340521     0.84200
O85         O  0.08402547  0.33037309  0.17239796    -0.66400
Ni86       Ni  0.21976289  0.24360643  0.13941008     1.27400
Ni87       Ni  0.15966174  0.28740166  0.07955698     1.26100
H88         H  0.07968292  0.28595294  0.10538072     0.38700
C89         C  0.07559677  0.16639308  0.23652646     0.02800
C90         C  0.04581083  0.14127454  0.21859678    -0.13300
C91         C  0.03732561  0.14459470  0.18272960     0.00300
C92         C  0.05906227  0.17396548  0.16434197    -0.11900
C93         C  0.08888730  0.19975090  0.18202136     0.02800
C94         C  0.09651619  0.19563104  0.21792604    -0.11300
H95         H  0.02979754  0.11842371  0.23243142     0.08400
H96         H  0.05385906  0.17618788  0.13655578     0.05900
H97         H  0.12072656  0.21467465  0.23115754     0.05800
C98         C  0.22271170  0.17452971  0.48954654     0.02800
C99         C  0.22810204  0.14152144  0.00813927    -0.13300
C100        C  0.24698063  0.14295031  0.04222610     0.00300
C101        C  0.26419551  0.17616124  0.05500100    -0.11900
C102        C  0.24646550  0.20825650  0.04078304     0.02800
C103        C  0.22922431  0.20791150  0.00686778    -0.11300
H104        H  0.21717437  0.11581487  0.49669165     0.08400
H105        H  0.28106840  0.17738934  0.08056016     0.05900
H106        H  0.21666557  0.23307806  0.99505679     0.05800
O107        O  0.21474689  0.24213705  0.34508386    -0.81200
O108        O  0.08405024  0.13360662  0.42239872    -0.65900
O109        O  0.19082696  0.17640413  0.37395085    -1.12500
C110        C  0.08883080  0.16027073  0.27370543     1.05700
O111        O  0.07659466  0.09180494  0.38143880    -0.79100
O112        O  0.12732434  0.08874168  0.32199442    -0.66700
Ni113      Ni  0.21973577  0.22035500  0.38944859     1.34900
C114        C  0.17185745  0.09726214  0.31513199     0.84400
O115        O  0.17285770  0.15539077  0.44221980    -0.79700
O116        O  0.22681517  0.20153876  0.43523051    -0.89900
C117        C  0.07824098  0.10092056  0.41340580     0.84000
O118        O  0.16164268  0.24672573  0.40281239    -0.68100
O119        O  0.06344418  0.13771900  0.29178280    -0.87400
C120        C  0.11965878  0.23641706  0.41375924     0.84800
C121        C  0.20684510  0.17646565  0.45330390     1.06400
H122        H  0.07962797  0.17799871  0.35544494     0.38200
O123        O  0.10409871  0.15879993  0.35485454    -1.10100
O124        O  0.18858728  0.12953116  0.31866405    -0.66700
Ni125      Ni  0.15960133  0.17659928  0.32956384     1.26300
O126        O  0.10614999  0.20306395  0.41335202    -0.67000
O127        O  0.12639946  0.17714195  0.28565899    -0.79200
C128        C  0.22714248  0.22939636  0.31573124     0.84200
O129        O  0.21565063  0.19733063  0.30700588    -0.66400
Ni130      Ni  0.07117356  0.11650680  0.33763699     1.27400
Ni131      Ni  0.13697203  0.15705487  0.39927386     1.26100
H132        H  0.21688811  0.15835078  0.37389795     0.38700
C133        C  0.05604496  0.03946736  0.49160136     0.02800
C134        C  0.06143590  0.07247535  0.47300788    -0.13300
C135        C  0.08031517  0.07104547  0.43892143     0.00300
C136        C  0.09753077  0.03783425  0.42614852    -0.11900
C137        C  0.07979864  0.00573984  0.44036592     0.02800
C138        C  0.06255608  0.00608541  0.47428041    -0.11300
H139        H  0.05050828  0.09818229  0.48445466     0.08400
H140        H  0.11440511  0.03660517  0.40059028     0.05900
H141        H  0.04999585  0.48091921  0.48609103     0.05800
C142        C  0.24226735  0.04760474  0.24461961     0.02800
C143        C  0.26318722  0.01836747  0.26322076    -0.13300
C144        C  0.25555651  0.01424727  0.29912471     0.00300
C145        C  0.22572979  0.04003158  0.31680309    -0.11900
C146        C  0.20399316  0.06940226  0.29841502     0.02800
C147        C  0.21247984  0.07272295  0.26254817    -0.11300
H148        H  0.28739866  0.99932414  0.24999032     0.08400
H149        H  0.22052536  0.03780856  0.34458902     0.05900
H150        H  0.19646616  0.09557354  0.24871298     0.05800
O151        O  0.04808354  0.47185967  0.13606462    -0.81200
O152        O  0.25071760  0.08038862  0.05874663    -0.65900
O153        O  0.02416157  0.03759209  0.10719719    -1.12500
C154        C  0.25550070  0.05372564  0.20744082     1.05700
O155        O  0.24325555  0.12218891  0.09970697    -0.79100
O156        O  0.29399098  0.12525432  0.15914825    -0.66700
Ni157      Ni  0.05307182  0.49364184  0.09169994     1.34900
C158        C  0.00519056  0.11673408  0.16601257     0.84400
O159        O  0.00619202  0.05860596  0.03892791    -0.79700
O160        O  0.06015033  0.01245831  0.04591793    -0.89900
C161        C  0.24490544  0.11307419  0.06774014     0.84000
O162        O  0.32831270  0.46727048  0.07833513    -0.68100
O163        O  0.23011464  0.07627781  0.18936327    -0.87400
C164        C  0.28632843  0.47757890  0.06738766     0.84800
C165        C  0.04017957  0.03753144  0.02784417     1.06400
H166        H  0.24629588  0.03599610  0.12570018     0.38200
O167        O  0.27076590  0.05519506  0.12629137    -1.10100
O168        O  0.02192005  0.08446459  0.16248376    -0.66700
Ni169      Ni  0.32626908  0.03739618  0.15158326     1.26300
O170        O  0.27281891  0.01093179  0.06779431    -0.67000
O171        O  0.29306743  0.03685260  0.19548737    -0.79200
C172        C  0.06047837  0.48460068  0.16541761     0.83400
O173        O  0.04898583  0.01666624  0.17414239    -0.66400
Ni174      Ni  0.23783953  0.09748784  0.14350853     1.27400
Ni175      Ni  0.30363971  0.05694103  0.08187298     1.26100
H176        H  0.05022218  0.05564556  0.10725097     0.38700
C177        C  0.05613760  0.42458287  0.74161325     0.02800
C178        C  0.06152516  0.39156423  0.72301202    -0.13300
C179        C  0.08039494  0.39297041  0.68892453     0.00300
C180        C  0.09758627  0.42618204  0.67615422    -0.11900
C181        C  0.07984490  0.45828971  0.69037790     0.02800
C182        C  0.06262777  0.45795977  0.72430125    -0.11300
H183        H  0.05060660  0.36586430  0.73445797     0.08400
H184        H  0.11446947  0.42739391  0.65059953     0.05900
H185        H  0.05007723  0.48312900  0.73612935     0.05800
C186        C  0.24225040  0.41642858  0.99463803     0.02800
C187        C  0.26313758  0.44567697  0.51325872    -0.13300
C188        C  0.25552233  0.44978581  0.54916864     0.00300
C189        C  0.22573845  0.42397298  0.56683519    -0.11900
C190        C  0.20400152  0.39459653  0.54842661     0.02800
C191        C  0.21247993  0.39129335  0.51255101    -0.11300
H192        H  0.28732357  0.46473375  0.00003667     0.08400
H193        H  0.22055284  0.42618739  0.59462517     0.05900
H194        H  0.19648578  0.36843748  0.99869641     0.05800
O195        O  0.24340349  0.34183378  0.84970955    -0.81200
O196        O  0.04906739  0.44733772  0.92410784    -0.65900
O197        O  0.27080081  0.40883375  0.87630844    -1.12500
C198        C  0.04027242  0.42652683  0.77785523     1.05700
O199        O  0.04780177  0.49217687  0.88610479    -0.79100
O200        O  0.32843636  0.49674530  0.82815310    -0.66700
Ni201      Ni  0.23784553  0.36657418  0.89349956     1.34900
C202        C  0.28636246  0.48646695  0.81733549     0.84400
O203        O  0.29319414  0.42706948  0.94554315    -0.79700
O204        O  0.22999446  0.38786312  0.93932330    -0.89900
C205        C  0.06040658  0.47943313  0.91540743     0.84000
O206        O  0.29394562  0.33882219  0.90926310    -0.68100
O207        O  0.06041548  0.45149993  0.79598629    -0.87400
C208        C  0.00520948  0.34728102  0.91601267     0.84800
C209        C  0.25550146  0.41031032  0.95745247     1.06400
H210        H  0.05018805  0.40839951  0.85717562     0.38200
O211        O  0.02413862  0.42646142  0.85717020    -1.10100
O212        O  0.27272550  0.45314457  0.81788609    -0.66700
Ni213      Ni  0.30360706  0.40713380  0.83185530     1.26300
O214        O  0.02202448  0.37951179  0.91236905    -0.67000
O215        O  0.00610385  0.40556952  0.78887204    -0.79200
C216        C  0.24498287  0.35093042  0.81774084     0.84200
O217        O  0.25069011  0.38362601  0.80874745    -0.66400
Ni218      Ni  0.05309773  0.47039022  0.84173809     1.27400
Ni219      Ni  0.32632812  0.42659686  0.90158960     1.26100
H220        H  0.24634865  0.42804652  0.87576479     0.38700
C221        C  0.07558028  0.29756827  0.98650800     0.02800
C222        C  0.09646619  0.26831883  0.96788811    -0.13300
C223        C  0.08885224  0.26421033  0.93197763     0.00300
C224        C  0.05907046  0.29002446  0.91431006    -0.11900
C225        C  0.03733437  0.31940139  0.93271808     0.02800
C226        C  0.04581199  0.32270437  0.96859390    -0.11300
H227        H  0.12065081  0.24926144  0.98111111     0.08400
H228        H  0.05388556  0.28781052  0.88651984     0.05900
H229        H  0.02981906  0.34556093  0.98244784     0.05800
C230        C  0.22280509  0.28941397  0.73953453     0.02800
C231        C  0.22819228  0.32243303  0.75813491    -0.13300
C232        C  0.24705971  0.32102778  0.79222322     0.00300
C233        C  0.26424865  0.28781615  0.80499608    -0.11900
C234        C  0.24650909  0.25570794  0.79077180     0.02800
C235        C  0.22929462  0.25603730  0.75684735    -0.11300
H236        H  0.21727465  0.34813272  0.74668766     0.08400
H237        H  0.28112968  0.28660491  0.83055191     0.05900
H238        H  0.21674502  0.23086787  0.74501894     0.05800
O239        O  0.07674167  0.37216650  0.63143640    -0.81200
O240        O  0.21573352  0.26665939  0.55703951    -0.65900
O241        O  0.10413501  0.30516531  0.60483740    -1.12500
C242        C  0.20693941  0.28746997  0.70329251     1.05700
O243        O  0.21446857  0.22182053  0.59504302    -0.79100
O244        O  0.16176652  0.21725199  0.65299221    -0.66700
Ni245      Ni  0.07117988  0.34742521  0.58764604     1.34900
C246        C  0.11969404  0.22753128  0.66381096     0.84400
O247        O  0.12652654  0.28692959  0.53560299    -0.79700
O248        O  0.06332504  0.32613454  0.54182268    -0.89900
C249        C  0.22707337  0.23456401  0.56574065     0.84000
O250        O  0.12727907  0.37517619  0.57188021    -0.68100
O251        O  0.22707990  0.26249553  0.68516235    -0.87400
C252        C  0.17187637  0.36671721  0.56513185     0.84800
C253        C  0.08883221  0.30368753  0.52369364     1.06400
H254        H  0.21685630  0.30559775  0.62397214     0.38200
O255        O  0.19080604  0.28753632  0.62397707    -1.10100
O256        O  0.10605925  0.26085433  0.66326112    -0.66700
Ni257      Ni  0.13694172  0.30686473  0.64929112     1.26300
O258        O  0.18869189  0.33448669  0.56877774    -0.67000
O259        O  0.17277301  0.30842908  0.69227464    -0.79200
C260        C  0.07831912  0.36306899  0.66340524     0.84200
O261        O  0.08402533  0.33037308  0.67239797    -0.66400
Ni262      Ni  0.21976288  0.24360645  0.63941005     1.27400
Ni263      Ni  0.15966160  0.28740162  0.57955696     1.26100
H264        H  0.07968256  0.28595282  0.60538069     0.38700
C265        C  0.07559679  0.16639306  0.73652647     0.02800
C266        C  0.04581086  0.14127450  0.71859677    -0.13300
C267        C  0.03732557  0.14459472  0.68272963     0.00300
C268        C  0.05906223  0.17396551  0.66434204    -0.11900
C269        C  0.08888733  0.19975088  0.68202138     0.02800
C270        C  0.09651618  0.19563099  0.71792601    -0.11300
H271        H  0.02979767  0.11842363  0.73243137     0.08400
H272        H  0.05385899  0.17618789  0.63655582     0.05900
H273        H  0.12072658  0.21467461  0.73115751     0.05800
C274        C  0.22271166  0.17452973  0.98954654     0.02800
C275        C  0.22810224  0.14152143  0.50813929    -0.13300
C276        C  0.24698067  0.14295033  0.54222613     0.00300
C277        C  0.26419538  0.17616128  0.55500103    -0.11900
C278        C  0.24646538  0.20825651  0.54078303     0.02800
C279        C  0.22922422  0.20791147  0.50686779    -0.11300
H280        H  0.21717408  0.11581489  0.99669162     0.08400
H281        H  0.28106818  0.17738942  0.58056025     0.05900
H282        H  0.21666538  0.23307800  0.49505681     0.05800
O283        O  0.21474672  0.24213707  0.84508383    -0.81200
O284        O  0.08405026  0.13360663  0.92239869    -0.65900
O285        O  0.19082705  0.17640409  0.87395084    -1.12500
C286        C  0.08883085  0.16027073  0.77370542     1.05700
O287        O  0.07659456  0.09180495  0.88143878    -0.79100
O288        O  0.12732426  0.08874166  0.82199441    -0.66700
Ni289      Ni  0.21973569  0.22035501  0.88944856     1.34900
C290        C  0.17185742  0.09726210  0.81513208     0.84400
O291        O  0.17285765  0.15539078  0.94221983    -0.79700
O292        O  0.22681511  0.20153876  0.93523049    -0.89900
C293        C  0.07824098  0.10092057  0.91340577     0.84000
O294        O  0.16164257  0.24672572  0.90281233    -0.68100
O295        O  0.06344415  0.13771904  0.79178280    -0.87400
C296        C  0.11965870  0.23641704  0.91375920     0.84800
C297        C  0.20684506  0.17646566  0.95330390     1.06400
H298        H  0.07962805  0.17799874  0.85544489     0.38200
O299        O  0.10409876  0.15879992  0.85485450    -1.10100
O300        O  0.18858723  0.12953113  0.81866407    -0.66700
Ni301      Ni  0.15960143  0.17659926  0.82956384     1.26300
O302        O  0.10614992  0.20306394  0.91335198    -0.67000
O303        O  0.12639959  0.17714190  0.78565897    -0.79200
C304        C  0.22714240  0.22939637  0.81573123     0.84200
O305        O  0.21565082  0.19733056  0.80700595    -0.66400
Ni306      Ni  0.07117348  0.11650682  0.83763697     1.27400
Ni307      Ni  0.13697205  0.15705486  0.89927384     1.26100
H308        H  0.21688827  0.15835080  0.87389790     0.38700
C309        C  0.05604481  0.03946738  0.99160135     0.02800
C310        C  0.06143575  0.07247539  0.97300785    -0.13300
C311        C  0.08031510  0.07104549  0.93892141     0.00300
C312        C  0.09753068  0.03783427  0.92614848    -0.11900
C313        C  0.07979849  0.00573985  0.94036590     0.02800
C314        C  0.06255587  0.00608539  0.97428040    -0.11300
H315        H  0.05050816  0.09818233  0.98445461     0.08400
H316        H  0.11440507  0.03660518  0.90059025     0.05900
H317        H  0.04999579  0.48091923  0.98609097     0.05800
C318        C  0.24226722  0.04760474  0.74461961     0.02800
C319        C  0.26318713  0.01836745  0.76322071    -0.13300
C320        C  0.25555657  0.01424727  0.79912468     0.00300
C321        C  0.22572997  0.04003158  0.81680315    -0.11900
C322        C  0.20399321  0.06940225  0.79841513     0.02800
C323        C  0.21247978  0.07272296  0.76254825    -0.11300
H324        H  0.28739849  0.99932409  0.74999021     0.08400
H325        H  0.22052565  0.03780848  0.84458909     0.05900
H326        H  0.19646604  0.09557356  0.74871313     0.05800
O327        O  0.04808343  0.47185966  0.63606462    -0.81200
O328        O  0.25071748  0.08038860  0.55874664    -0.65900
O329        O  0.02416153  0.03759206  0.60719722    -1.12500
C330        C  0.25550064  0.05372564  0.70744082     1.05700
O331        O  0.24325576  0.12218889  0.59970700    -0.79100
O332        O  0.29399104  0.12525428  0.65914825    -0.66700
Ni333      Ni  0.05307176  0.49364183  0.59169994     1.34900
C334        C  0.00519058  0.11673409  0.66601255     0.84400
O335        O  0.00619202  0.05860591  0.53892787    -0.79700
O336        O  0.06015040  0.01245834  0.54591795    -0.89900
C337        C  0.24490544  0.11307419  0.56774017     0.84000
O338        O  0.32831272  0.46727048  0.57833506    -0.68100
O339        O  0.23011457  0.07627777  0.68936323    -0.87400
C340        C  0.28632843  0.47757889  0.56738763     0.84800
C341        C  0.04017964  0.03753143  0.52784418     1.06400
H342        H  0.24629585  0.03599609  0.62570019     0.38200
O343        O  0.27076591  0.05519503  0.62629138    -1.10100
O344        O  0.02192009  0.08446461  0.66248375    -0.66700
Ni345      Ni  0.32626910  0.03739619  0.65158330     1.26300
O346        O  0.27281902  0.01093176  0.56779428    -0.67000
O347        O  0.29306748  0.03685268  0.69548743    -0.79200
C348        C  0.06047823  0.48460065  0.66541761     0.83400
O349        O  0.04898577  0.01666622  0.67414244    -0.66400
Ni350      Ni  0.23783960  0.09748782  0.64350852     1.27400
Ni351      Ni  0.30363968  0.05694101  0.58187298     1.26100
H352        H  0.05022214  0.05564553  0.60725103     0.38700
C353        C  0.05613757  0.92458285  0.24161322     0.02800
C354        C  0.06152518  0.89156421  0.22301200    -0.13300
C355        C  0.08039493  0.89297039  0.18892449     0.00300
C356        C  0.09758625  0.92618201  0.17615411    -0.11900
C357        C  0.07984492  0.95828969  0.19037787     0.02800
C358        C  0.06262774  0.95795975  0.22430125    -0.11300
H359        H  0.05060672  0.86586425  0.23445799     0.08400
H360        H  0.11446940  0.92739389  0.15059945     0.05900
H361        H  0.05007723  0.98312898  0.23612937     0.05800
C362        C  0.24225030  0.91642856  0.49463804     0.02800
C363        C  0.26313758  0.94567703  0.01325865    -0.13300
C364        C  0.25552227  0.94978583  0.04916863     0.00300
C365        C  0.22573845  0.92397296  0.06683526    -0.11900
C366        C  0.20400147  0.89459653  0.04842663     0.02800
C367        C  0.21248000  0.89129329  0.01255101    -0.11300
H368        H  0.28732351  0.96473368  0.50003664     0.08400
H369        H  0.22055289  0.92618737  0.09462522     0.05900
H370        H  0.19648586  0.86843740  0.49869648     0.05800
O371        O  0.24340349  0.84183375  0.34970955    -0.81200
O372        O  0.04906729  0.94733770  0.42410792    -0.65900
O373        O  0.27080081  0.90883367  0.37630846    -1.12500
C374        C  0.04027247  0.92652686  0.27785523     1.05700
O375        O  0.04780156  0.99217685  0.38610486    -0.79100
O376        O  0.32843626  0.99674528  0.32815316    -0.66700
Ni377      Ni  0.23784546  0.86657411  0.39349958     1.34900
C378        C  0.28636235  0.98646691  0.31733554     0.84400
O379        O  0.29319402  0.92706945  0.44554314    -0.79700
O380        O  0.22999436  0.88786303  0.43932334    -0.89900
C381        C  0.06040649  0.97943311  0.41540747     0.84000
O382        O  0.29394560  0.83882216  0.40926313    -0.68100
O383        O  0.06041561  0.95149993  0.29598629    -0.87400
C384        C  0.00520952  0.84728097  0.41601269     0.84800
C385        C  0.25550133  0.91031029  0.45745248     1.06400
H386        H  0.05018839  0.90839940  0.35717565     0.38200
O387        O  0.02413874  0.92646138  0.35717020    -1.10100
O388        O  0.27272542  0.95314453  0.31788610    -0.66700
Ni389      Ni  0.30360700  0.90713378  0.33185527     1.26300
O390        O  0.02202452  0.87951174  0.41236909    -0.67000
O391        O  0.00610384  0.90556959  0.28887200    -0.79200
C392        C  0.24498289  0.85093037  0.31774084     0.84200
O393        O  0.25069004  0.88362597  0.30874742    -0.66400
Ni394      Ni  0.05309775  0.97039025  0.34173813     1.27400
Ni395      Ni  0.32632814  0.92659679  0.40158961     1.26100
H396        H  0.24634867  0.92804645  0.37576485     0.38700
C397        C  0.07558033  0.79756836  0.48650797     0.02800
C398        C  0.09646616  0.76831889  0.46788811    -0.13300
C399        C  0.08885217  0.76421030  0.43197766     0.00300
C400        C  0.05907046  0.79002442  0.41431007    -0.11900
C401        C  0.03733437  0.81940134  0.43271808     0.02800
C402        C  0.04581188  0.82270432  0.46859389    -0.11300
H403        H  0.12065082  0.74926153  0.48111113     0.08400
H404        H  0.05388563  0.78781052  0.38651985     0.05900
H405        H  0.02981879  0.84556084  0.48244781     0.05800
C406        C  0.22280487  0.78941391  0.23953459     0.02800
C407        C  0.22819209  0.82243295  0.25813497    -0.13300
C408        C  0.24705973  0.82102773  0.29222321     0.00300
C409        C  0.26424867  0.78781614  0.30499607    -0.11900
C410        C  0.24650915  0.75570793  0.29077182     0.02800
C411        C  0.22929463  0.75603727  0.25684738    -0.11300
H412        H  0.21727440  0.84813265  0.24668773     0.08400
H413        H  0.28112973  0.78660493  0.33055192     0.05900
H414        H  0.21674517  0.73086781  0.24501898     0.05800
O415        O  0.07674164  0.87216650  0.13143639    -0.81200
O416        O  0.21573361  0.76665943  0.05703958    -0.65900
O417        O  0.10413504  0.80516530  0.10483741    -1.12500
C418        C  0.20693925  0.78746989  0.20329254     1.05700
O419        O  0.21446867  0.72182051  0.09504303    -0.79100
O420        O  0.16176651  0.71725204  0.15299224    -0.66700
Ni421      Ni  0.07117985  0.84742522  0.08764606     1.34900
C422        C  0.11969402  0.72753133  0.16381093     0.84400
O423        O  0.12652654  0.78692958  0.03560305    -0.79700
O424        O  0.06332512  0.82613463  0.04182268    -0.89900
C425        C  0.22707344  0.73456405  0.06574067     0.84000
O426        O  0.12727904  0.87517623  0.07188031    -0.68100
O427        O  0.22707973  0.76249543  0.18516242    -0.87400
C428        C  0.17187632  0.86671723  0.06513182     0.84800
C429        C  0.08883231  0.80368760  0.02369366     1.06400
H430        H  0.21685621  0.80559756  0.12397216     0.38200
O431        O  0.19080607  0.78753627  0.12397710    -1.10100
O432        O  0.10605918  0.76085436  0.16326105    -0.66700
Ni433      Ni  0.13694175  0.80686472  0.14929109     1.26300
O434        O  0.18869181  0.83448669  0.06877764    -0.67000
O435        O  0.17277300  0.80842909  0.19227460    -0.79200
C436        C  0.07831917  0.86306897  0.16340521     0.84200
O437        O  0.08402540  0.83037307  0.17239793    -0.66400
Ni438      Ni  0.21976290  0.74360641  0.13941010     1.27400
Ni439      Ni  0.15966163  0.78740161  0.07955699     1.26100
H440        H  0.07968266  0.78595273  0.10538072     0.38700
C441        C  0.07559676  0.66639302  0.23652645     0.02800
C442        C  0.04581078  0.64127452  0.21859678    -0.13300
C443        C  0.03732559  0.64459470  0.18272961     0.00300
C444        C  0.05906226  0.67396547  0.16434198    -0.11900
C445        C  0.08888733  0.69975086  0.18202135     0.02800
C446        C  0.09651626  0.69563090  0.21792600    -0.11300
H447        H  0.02979744  0.61842369  0.23243140     0.08400
H448        H  0.05385897  0.67618783  0.13655580     0.05900
H449        H  0.12072672  0.71467449  0.23115750     0.05800
C450        C  0.22271161  0.67452976  0.48954655     0.02800
C451        C  0.22810206  0.64152154  0.00813930    -0.13300
C452        C  0.24698058  0.64295038  0.04222611     0.00300
C453        C  0.26419545  0.67616129  0.05500099    -0.11900
C454        C  0.24646544  0.70825658  0.04078300     0.02800
C455        C  0.22922425  0.70791161  0.00686773    -0.11300
H456        H  0.21717434  0.61581493  0.49669172     0.08400
H457        H  0.28106835  0.67738942  0.08056014     0.05900
H458        H  0.21666545  0.73307813  0.99505676     0.05800
O459        O  0.21474679  0.74213706  0.34508383    -0.81200
O460        O  0.08405024  0.63360659  0.42239869    -0.65900
O461        O  0.19082701  0.67640420  0.37395087    -1.12500
C462        C  0.08883078  0.66027068  0.27370544     1.05700
O463        O  0.07659465  0.59180489  0.38143879    -0.79100
O464        O  0.12732433  0.58874174  0.32199439    -0.66700
Ni465      Ni  0.21973571  0.72035508  0.38944860     1.34900
C466        C  0.17185745  0.59726220  0.31513198     0.84400
O467        O  0.17285765  0.65539074  0.44221980    -0.79700
O468        O  0.22681508  0.70153877  0.43523052    -0.89900
C469        C  0.07824103  0.60092053  0.41340579     0.84000
O470        O  0.16164258  0.74672575  0.40281238    -0.68100
O471        O  0.06344410  0.63771896  0.29178281    -0.87400
C472        C  0.11965869  0.73641702  0.41375925     0.84800
C473        C  0.20684503  0.67646564  0.45330390     1.06400
H474        H  0.07962803  0.67799870  0.35544491     0.38200
O475        O  0.10409876  0.65879990  0.35485452    -1.10100
O476        O  0.18858735  0.62953119  0.31866408    -0.66700
Ni477      Ni  0.15960141  0.67659927  0.32956384     1.26300
O478        O  0.10614994  0.70306393  0.41335202    -0.67000
O479        O  0.12639949  0.67714187  0.28565899    -0.79200
C480        C  0.22714249  0.72939634  0.31573123     0.84200
O481        O  0.21565081  0.69733056  0.30700591    -0.66400
Ni482      Ni  0.07117351  0.61650678  0.33763700     1.27400
Ni483      Ni  0.13697204  0.65705486  0.39927385     1.26100
H484        H  0.21688814  0.65835107  0.37389799     0.38700
C485        C  0.05604487  0.53946736  0.49160136     0.02800
C486        C  0.06143583  0.57247538  0.47300788    -0.13300
C487        C  0.08031517  0.57104547  0.43892144     0.00300
C488        C  0.09753075  0.53783426  0.42614854    -0.11900
C489        C  0.07979858  0.50573985  0.44036594     0.02800
C490        C  0.06255595  0.50608538  0.47428042    -0.11300
H491        H  0.05050821  0.59818232  0.48445465     0.08400
H492        H  0.11440513  0.53660518  0.40059030     0.05900
H493        H  0.04999603  0.98091921  0.48609105     0.05800
C494        C  0.24226733  0.54760474  0.24461961     0.02800
C495        C  0.26318723  0.51836750  0.26322076    -0.13300
C496        C  0.25555645  0.51424733  0.29912472     0.00300
C497        C  0.22572976  0.54003166  0.31680311    -0.11900
C498        C  0.20399317  0.56940233  0.29841504     0.02800
C499        C  0.21247991  0.57272296  0.26254820    -0.11300
H500        H  0.28739872  0.49932418  0.24999035     0.08400
H501        H  0.22052531  0.53780863  0.34458903     0.05900
H502        H  0.19646625  0.59557358  0.24871300     0.05800
O503        O  0.04808347  0.97185963  0.13606462    -0.81200
O504        O  0.25071753  0.58038863  0.05874664    -0.65900
O505        O  0.02416164  0.53759219  0.10719718    -1.12500
C506        C  0.25550068  0.55372562  0.20744081     1.05700
O507        O  0.24325549  0.62218895  0.09970696    -0.79100
O508        O  0.29399093  0.62525443  0.15914824    -0.66700
Ni509      Ni  0.05307177  0.99364179  0.09169995     1.34900
C510        C  0.00519050  0.61673412  0.16601257     0.84400
O511        O  0.00619210  0.55860598  0.03892791    -0.79700
O512        O  0.06015045  0.51245834  0.04591793    -0.89900
C513        C  0.24490538  0.61307421  0.06774013     0.84000
O514        O  0.32831258  0.96727046  0.07833513    -0.68100
O515        O  0.23011463  0.57627779  0.18936325    -0.87400
C516        C  0.28632832  0.97757890  0.06738766     0.84800
C517        C  0.04017965  0.53753145  0.02784418     1.06400
H518        H  0.24629560  0.53599595  0.12570018     0.38200
O519        O  0.27076578  0.55519503  0.12629136    -1.10100
O520        O  0.02191994  0.58446463  0.16248378    -0.66700
Ni521      Ni  0.32626903  0.53739618  0.15158325     1.26300
O522        O  0.27281902  0.51093179  0.06779428    -0.67000
O523        O  0.29306744  0.53685258  0.19548738    -0.79200
C524        C  0.06047830  0.98460065  0.16541761     0.83400
O525        O  0.04898587  0.51666627  0.17414240    -0.66400
Ni526      Ni  0.23783949  0.59748789  0.14350853     1.27400
Ni527      Ni  0.30363968  0.55694105  0.08187299     1.26100
H528        H  0.05022233  0.55564583  0.10725093     0.38700
C529        C  0.05613759  0.92458283  0.74161325     0.02800
C530        C  0.06152519  0.89156419  0.72301202    -0.13300
C531        C  0.08039504  0.89297035  0.68892456     0.00300
C532        C  0.09758629  0.92618200  0.67615424    -0.11900
C533        C  0.07984484  0.95828966  0.69037790     0.02800
C534        C  0.06262769  0.95795971  0.72430124    -0.11300
H535        H  0.05060663  0.86586426  0.73445797     0.08400
H536        H  0.11446947  0.92739389  0.65059954     0.05900
H537        H  0.05007716  0.98312895  0.73612934     0.05800
C538        C  0.24225041  0.91642854  0.99463803     0.02800
C539        C  0.26313756  0.94567698  0.51325868    -0.13300
C540        C  0.25552236  0.94978581  0.54916863     0.00300
C541        C  0.22573861  0.92397292  0.56683523    -0.11900
C542        C  0.20400158  0.89459651  0.54842665     0.02800
C543        C  0.21247991  0.89129333  0.51255104    -0.11300
H544        H  0.28732346  0.96473377  0.00003663     0.08400
H545        H  0.22055310  0.92618734  0.59462521     0.05900
H546        H  0.19648606  0.86843730  0.99869647     0.05800
O547        O  0.24340342  0.84183372  0.84970956    -0.81200
O548        O  0.04906733  0.94733768  0.92410785    -0.65900
O549        O  0.27080089  0.90883363  0.87630844    -1.12500
C550        C  0.04027252  0.92652684  0.77785524     1.05700
O551        O  0.04780163  0.99217686  0.88610480    -0.79100
O552        O  0.32843629  0.99674526  0.82815308    -0.66700
Ni553      Ni  0.23784549  0.86657411  0.89349956     1.34900
C554        C  0.28636240  0.98646689  0.81733548     0.84400
O555        O  0.29319409  0.92706941  0.94554313    -0.79700
O556        O  0.22999441  0.88786306  0.93932330    -0.89900
C557        C  0.06040647  0.97943312  0.91540743     0.84000
O558        O  0.29394561  0.83882212  0.90926310    -0.68100
O559        O  0.06041565  0.95149993  0.79598630    -0.87400
C560        C  0.00520947  0.84728095  0.91601265     0.84800
C561        C  0.25550141  0.91031026  0.95745247     1.06400
H562        H  0.05018806  0.90839952  0.85717560     0.38200
O563        O  0.02413861  0.92646142  0.85717019    -1.10100
O564        O  0.27272542  0.95314451  0.81788611    -0.66700
Ni565      Ni  0.30360706  0.90713377  0.83185529     1.26300
O566        O  0.02202448  0.87951172  0.91236904    -0.67000
O567        O  0.00610387  0.90556958  0.78887205    -0.79200
C568        C  0.24498278  0.85093037  0.81774084     0.84200
O569        O  0.25069006  0.88362596  0.80874745    -0.66400
Ni570      Ni  0.05309772  0.97039024  0.84173810     1.27400
Ni571      Ni  0.32632811  0.92659679  0.90158960     1.26100
H572        H  0.24634892  0.92804631  0.87576482     0.38700
C573        C  0.07558044  0.79756837  0.98650797     0.02800
C574        C  0.09646631  0.76831891  0.96788811    -0.13300
C575        C  0.08885230  0.76421032  0.93197765     0.00300
C576        C  0.05907058  0.79002443  0.91431005    -0.11900
C577        C  0.03733440  0.81940133  0.93271807     0.02800
C578        C  0.04581198  0.82270435  0.96859389    -0.11300
H579        H  0.12065092  0.74926150  0.98111113     0.08400
H580        H  0.05388576  0.78781049  0.88651984     0.05900
H581        H  0.02981890  0.84556084  0.98244782     0.05800
C582        C  0.22280509  0.78941391  0.73953454     0.02800
C583        C  0.22819224  0.82243296  0.75813492    -0.13300
C584        C  0.24705964  0.82102773  0.79222323     0.00300
C585        C  0.26424866  0.78781614  0.80499610    -0.11900
C586        C  0.24650922  0.75570790  0.79077181     0.02800
C587        C  0.22929481  0.75603723  0.75684733    -0.11300
H588        H  0.21727461  0.84813266  0.74668764     0.08400
H589        H  0.28112963  0.78660494  0.83055196     0.05900
H590        H  0.21674528  0.73086780  0.74501893     0.05800
O591        O  0.07674160  0.87216651  0.63143641    -0.81200
O592        O  0.21573374  0.76665946  0.55703956    -0.65900
O593        O  0.10413509  0.80516528  0.60483738    -1.12500
C594        C  0.20693934  0.78746990  0.70329252     1.05700
O595        O  0.21446846  0.72182052  0.59504298    -0.79100
O596        O  0.16176645  0.71725206  0.65299219    -0.66700
Ni597      Ni  0.07117988  0.84742523  0.58764604     1.34900
C598        C  0.11969400  0.72753134  0.66381098     0.84400
O599        O  0.12652658  0.78692960  0.53560300    -0.79700
O600        O  0.06332514  0.82613463  0.54182266    -0.89900
C601        C  0.22707338  0.73456404  0.56574064     0.84000
O602        O  0.12727905  0.87517625  0.57188023    -0.68100
O603        O  0.22707984  0.76249547  0.68516235    -0.87400
C604        C  0.17187635  0.86671725  0.56513186     0.84800
C605        C  0.08883229  0.80368762  0.52369363     1.06400
H606        H  0.21685618  0.80559755  0.62397221     0.38200
O607        O  0.19080604  0.78753626  0.62397710    -1.10100
O608        O  0.10605915  0.76085435  0.66326114    -0.66700
Ni609      Ni  0.13694170  0.80686469  0.64929112     1.26300
O610        O  0.18869185  0.83448671  0.56877775    -0.67000
O611        O  0.17277293  0.80842902  0.69227465    -0.79200
C612        C  0.07831911  0.86306897  0.66340523     0.84200
O613        O  0.08402526  0.83037304  0.67239791    -0.66400
Ni614      Ni  0.21976285  0.74360641  0.63941004     1.27400
Ni615      Ni  0.15966168  0.78740162  0.57955696     1.26100
H616        H  0.07968276  0.78595269  0.60538063     0.38700
C617        C  0.07559676  0.66639303  0.73652647     0.02800
C618        C  0.04581091  0.64127449  0.71859673    -0.13300
C619        C  0.03732570  0.64459472  0.68272959     0.00300
C620        C  0.05906229  0.67396554  0.66434204    -0.11900
C621        C  0.08888738  0.69975086  0.68202140     0.02800
C622        C  0.09651621  0.69563096  0.71792603    -0.11300
H623        H  0.02979770  0.61842359  0.73243130     0.08400
H624        H  0.05385896  0.67618799  0.63655583     0.05900
H625        H  0.12072655  0.71467460  0.73115756     0.05800
C626        C  0.22271177  0.67452980  0.98954650     0.02800
C627        C  0.22810222  0.64152153  0.50813935    -0.13300
C628        C  0.24698075  0.64295040  0.54222613     0.00300
C629        C  0.26419545  0.67616134  0.55500095    -0.11900
C630        C  0.24646538  0.70825657  0.54078298     0.02800
C631        C  0.22922414  0.70791155  0.50686776    -0.11300
H632        H  0.21717404  0.61581496  0.99669166     0.08400
H633        H  0.28106834  0.67738952  0.58056016     0.05900
H634        H  0.21666535  0.73307806  0.49505676     0.05800
O635        O  0.21474660  0.74213711  0.84508379    -0.81200
O636        O  0.08405024  0.63360659  0.92239868    -0.65900
O637        O  0.19082694  0.67640425  0.87395084    -1.12500
C638        C  0.08883081  0.66027068  0.77370542     1.05700
O639        O  0.07659459  0.59180489  0.88143879    -0.79100
O640        O  0.12732433  0.58874175  0.82199439    -0.66700
Ni641      Ni  0.21973569  0.72035511  0.88944854     1.34900
C642        C  0.17185748  0.59726219  0.81513206     0.84400
O643        O  0.17285771  0.65539087  0.94221982    -0.79700
O644        O  0.22681530  0.70153879  0.93523046    -0.89900
C645        C  0.07824100  0.60092053  0.91340577     0.84000
O646        O  0.16164257  0.74672574  0.90281235    -0.68100
O647        O  0.06344414  0.63771898  0.79178281    -0.87400
C648        C  0.11965870  0.73641702  0.91375923     0.84800
C649        C  0.20684521  0.67646570  0.95330387     1.06400
H650        H  0.07962793  0.67799867  0.85544493     0.38200
O651        O  0.10409873  0.65879992  0.85485451    -1.10100
O652        O  0.18858733  0.62953121  0.81866412    -0.66700
Ni653      Ni  0.15960136  0.67659931  0.82956383     1.26300
O654        O  0.10614991  0.70306393  0.91335198    -0.67000
O655        O  0.12639954  0.67714187  0.78565897    -0.79200
C656        C  0.22714241  0.72939638  0.81573123     0.84200
O657        O  0.21565076  0.69733059  0.80700593    -0.66400
Ni658      Ni  0.07117352  0.61650679  0.83763698     1.27400
Ni659      Ni  0.13697204  0.65705489  0.89927385     1.26100
H660        H  0.21688808  0.65835113  0.87389788     0.38700
C661        C  0.05604486  0.53946737  0.99160133     0.02800
C662        C  0.06143594  0.57247538  0.97300787    -0.13300
C663        C  0.08031532  0.57104547  0.93892144     0.00300
C664        C  0.09753092  0.53783425  0.92614853    -0.11900
C665        C  0.07979867  0.50573984  0.94036590     0.02800
C666        C  0.06255592  0.50608540  0.97428036    -0.11300
H667        H  0.05050834  0.59818232  0.98445462     0.08400
H668        H  0.11440528  0.53660519  0.90059028     0.05900
H669        H  0.04999583  0.98091922  0.98609104     0.05800
C670        C  0.24226720  0.54760477  0.74461961     0.02800
C671        C  0.26318725  0.51836757  0.76322075    -0.13300
C672        C  0.25555660  0.51424735  0.79912470     0.00300
C673        C  0.22572993  0.54003163  0.81680315    -0.11900
C674        C  0.20399317  0.56940231  0.79841511     0.02800
C675        C  0.21247977  0.57272300  0.76254823    -0.11300
H676        H  0.28739877  0.49932428  0.74999028     0.08400
H677        H  0.22052561  0.53780856  0.84458908     0.05900
H678        H  0.19646608  0.59557361  0.74871311     0.05800
O679        O  0.04808357  0.97185962  0.63606460    -0.81200
O680        O  0.25071760  0.58038864  0.55874663    -0.65900
O681        O  0.02416168  0.53759217  0.60719725    -1.12500
C682        C  0.25550056  0.55372562  0.70744081     1.05700
O683        O  0.24325575  0.62218894  0.59970699    -0.79100
O684        O  0.29399101  0.62525440  0.65914824    -0.66700
Ni685      Ni  0.05307175  0.99364179  0.59169993     1.34900
C686        C  0.00519066  0.61673413  0.66601252     0.84400
O687        O  0.00619208  0.55860598  0.53892789    -0.79700
O688        O  0.06015035  0.51245833  0.54591793    -0.89900
C689        C  0.24490559  0.61307422  0.56774017     0.84000
O690        O  0.32831277  0.96727046  0.57833507    -0.68100
O691        O  0.23011453  0.57627779  0.68936322    -0.87400
C692        C  0.28632847  0.97757888  0.56738762     0.84800
C693        C  0.04017960  0.53753145  0.52784417     1.06400
H694        H  0.24629560  0.53599595  0.62570019     0.38200
O695        O  0.27076581  0.55519501  0.62629137    -1.10100
O696        O  0.02192006  0.58446461  0.66248379    -0.66700
Ni697      Ni  0.32626905  0.53739620  0.65158330     1.26300
O698        O  0.27281900  0.51093177  0.56779428    -0.67000
O699        O  0.29306736  0.53685261  0.69548741    -0.79200
C700        C  0.06047823  0.98460062  0.66541762     0.83400
O701        O  0.04898573  0.51666624  0.67414247    -0.66400
Ni702      Ni  0.23783957  0.59748788  0.64350852     1.27400
Ni703      Ni  0.30363969  0.55694103  0.58187300     1.26100
H704        H  0.05022245  0.55564576  0.60725108     0.38700
C705        C  0.38947087  0.42458291  0.24161320     0.02800
C706        C  0.39485838  0.39156429  0.22301195    -0.13300
C707        C  0.41372824  0.39297044  0.18892448     0.00300
C708        C  0.43091961  0.42618205  0.17615411    -0.11900
C709        C  0.41317830  0.45828974  0.19037787     0.02800
C710        C  0.39596113  0.45795980  0.22430126    -0.11300
H711        H  0.38393980  0.36586435  0.23445792     0.08400
H712        H  0.44780277  0.42739391  0.15059945     0.05900
H713        H  0.38341065  0.48312904  0.23612938     0.05800
C714        C  0.57558365  0.41642859  0.49463805     0.02800
C715        C  0.59647093  0.44567704  0.01325868    -0.13300
C716        C  0.58885565  0.44978584  0.04916865     0.00300
C717        C  0.55907181  0.42397297  0.06683526    -0.11900
C718        C  0.53733482  0.39459654  0.04842661     0.02800
C719        C  0.54581332  0.39129331  0.01255099    -0.11300
H720        H  0.62065691  0.46473367  0.50003672     0.08400
H721        H  0.55388622  0.42618738  0.09462521     0.05900
H722        H  0.52981925  0.36843741  0.49869645     0.05800
O723        O  0.57673657  0.34183381  0.34970954    -0.81200
O724        O  0.38240069  0.44733772  0.42410791    -0.65900
O725        O  0.60413415  0.40883372  0.37630845    -1.12500
C726        C  0.37360578  0.42652684  0.27785522     1.05700
O727        O  0.38113496  0.49217685  0.38610483    -0.79100
O728        O  0.66176958  0.49674525  0.32815314    -0.66700
Ni729      Ni  0.57117876  0.36657419  0.39349959     1.34900
C730        C  0.61969564  0.48646695  0.31733556     0.84400
O731        O  0.62652737  0.42706952  0.44554314    -0.79700
O732        O  0.56332775  0.38786310  0.43932334    -0.89900
C733        C  0.39373983  0.47943313  0.41540747     0.84000
O734        O  0.62727893  0.33882224  0.40926309    -0.68100
O735        O  0.39374890  0.45149992  0.29598629    -0.87400
C736        C  0.33854276  0.34728102  0.41601270     0.84800
C737        C  0.58883471  0.41031035  0.45745249     1.06400
H738        H  0.38352166  0.40839936  0.35717562     0.38200
O739        O  0.35747204  0.42646136  0.35717019    -1.10100
O740        O  0.60605864  0.45314458  0.31788612    -0.66700
Ni741      Ni  0.63694033  0.40713381  0.33185527     1.26300
O742        O  0.35535785  0.37951176  0.41236909    -0.67000
O743        O  0.33943717  0.40556955  0.28887200    -0.79200
C744        C  0.57831608  0.35093043  0.31774084     0.84200
O745        O  0.58402337  0.38362601  0.30874741    -0.66400
Ni746      Ni  0.38643106  0.47039022  0.34173812     1.27400
Ni747      Ni  0.65966146  0.42659683  0.40158961     1.26100
H748        H  0.57968204  0.42804652  0.37576484     0.38700
C749        C  0.40891360  0.29756830  0.48650798     0.02800
C750        C  0.42979953  0.26831889  0.46788809    -0.13300
C751        C  0.42218557  0.26421034  0.43197764     0.00300
C752        C  0.39240379  0.29002448  0.41431007    -0.11900
C753        C  0.37066760  0.31940135  0.43271811     0.02800
C754        C  0.37914517  0.32270432  0.46859392    -0.11300
H755        H  0.45398421  0.24926153  0.48111109     0.08400
H756        H  0.38721900  0.28781061  0.38651984     0.05900
H757        H  0.36315213  0.34556083  0.48244787     0.05800
C758        C  0.55613825  0.28941396  0.23953459     0.02800
C759        C  0.56152546  0.32243300  0.25813497    -0.13300
C760        C  0.58039303  0.32102778  0.29222322     0.00300
C761        C  0.59758204  0.28781619  0.30499608    -0.11900
C762        C  0.57984255  0.25570796  0.29077181     0.02800
C763        C  0.56262801  0.25603730  0.25684738    -0.11300
H764        H  0.55060776  0.34813269  0.24668774     0.08400
H765        H  0.61446305  0.28660498  0.33055194     0.05900
H766        H  0.55007852  0.23086785  0.24501897     0.05800
O767        O  0.41007505  0.37216650  0.13143639    -0.81200
O768        O  0.54906697  0.26665940  0.05703955    -0.65900
O769        O  0.43746847  0.30516537  0.10483741    -1.12500
C770        C  0.54027264  0.28746995  0.20329254     1.05700
O771        O  0.54780183  0.22182052  0.09504302    -0.79100
O772        O  0.49509991  0.21725199  0.15299227    -0.66700
Ni773      Ni  0.40451314  0.34742519  0.08764607     1.34900
C774        C  0.45302741  0.22753128  0.16381093     0.84400
O775        O  0.45985990  0.28692962  0.03560302    -0.79700
O776        O  0.39665825  0.32613447  0.04182273    -0.89900
C777        C  0.56040676  0.23456400  0.06574068     0.84000
O778        O  0.46061232  0.37517618  0.07188022    -0.68100
O779        O  0.56041313  0.26249548  0.18516241    -0.87400
C780        C  0.50520964  0.36671722  0.06513181     0.84800
C781        C  0.42216550  0.30368752  0.02369368     1.06400
H782        H  0.55018998  0.30559790  0.12397216     0.38200
O783        O  0.52413953  0.28753638  0.12397709    -1.10100
O784        O  0.43939261  0.26085434  0.16326102    -0.66700
Ni785      Ni  0.47027517  0.30686477  0.14929111     1.26300
O786        O  0.52202519  0.33448671  0.06877765    -0.67000
O787        O  0.50610638  0.30842914  0.19227460    -0.79200
C788        C  0.41165254  0.36306899  0.16340522     0.84200
O789        O  0.41735877  0.33037309  0.17239796    -0.66400
Ni790      Ni  0.55309623  0.24360644  0.13941008     1.27400
Ni791      Ni  0.49299504  0.28740166  0.07955698     1.26100
H792        H  0.41301623  0.28595294  0.10538072     0.38700
C793        C  0.40893008  0.16639309  0.23652646     0.02800
C794        C  0.37914413  0.14127455  0.21859678    -0.13300
C795        C  0.37065894  0.14459470  0.18272960     0.00300
C796        C  0.39239562  0.17396547  0.16434197    -0.11900
C797        C  0.42222066  0.19975089  0.18202136     0.02800
C798        C  0.42984951  0.19563104  0.21792603    -0.11300
H799        H  0.36313085  0.11842371  0.23243142     0.08400
H800        H  0.38719244  0.17618783  0.13655577     0.05900
H801        H  0.45405987  0.21467465  0.23115754     0.05800
C802        C  0.55604501  0.17452970  0.48954655     0.02800
C803        C  0.56143540  0.14152144  0.00813927    -0.13300
C804        C  0.58031394  0.14295031  0.04222611     0.00300
C805        C  0.59752882  0.17616124  0.05500102    -0.11900
C806        C  0.57979881  0.20825650  0.04078305     0.02800
C807        C  0.56255768  0.20791150  0.00686778    -0.11300
H808        H  0.55050765  0.11581488  0.49669167     0.08400
H809        H  0.61440170  0.17738934  0.08056018     0.05900
H810        H  0.54999887  0.23307805  0.99505680     0.05800
O811        O  0.54808018  0.24213705  0.34508385    -0.81200
O812        O  0.41738360  0.13360662  0.42239871    -0.65900
O813        O  0.52416030  0.17640415  0.37395087    -1.12500
C814        C  0.42216414  0.16027074  0.27370543     1.05700
O815        O  0.40992803  0.09180495  0.38143880    -0.79100
O816        O  0.46065765  0.08874168  0.32199441    -0.66700
Ni817      Ni  0.55306909  0.22035501  0.38944859     1.34900
C818        C  0.50519076  0.09726213  0.31513199     0.84400
O819        O  0.50619101  0.15539077  0.44221980    -0.79700
O820        O  0.56014847  0.20153876  0.43523052    -0.89900
C821        C  0.41157440  0.10092056  0.41340580     0.84000
O822        O  0.49497599  0.24672573  0.40281239    -0.68100
O823        O  0.39677750  0.13771901  0.29178280    -0.87400
C824        C  0.45299208  0.23641706  0.41375924     0.84800
C825        C  0.54017841  0.17646565  0.45330390     1.06400
H826        H  0.41296138  0.17799875  0.35544490     0.38200
O827        O  0.43743210  0.15879995  0.35485451    -1.10100
O828        O  0.52192065  0.12953114  0.31866405    -0.66700
Ni829      Ni  0.49293476  0.17659928  0.32956383     1.26300
O830        O  0.43948329  0.20306395  0.41335202    -0.67000
O831        O  0.45973285  0.17714194  0.28565898    -0.79200
C832        C  0.56047587  0.22939636  0.31573124     0.84200
O833        O  0.54898419  0.19733058  0.30700591    -0.66400
Ni834      Ni  0.40450689  0.11650681  0.33763700     1.27400
Ni835      Ni  0.47030536  0.15705488  0.39927385     1.26100
H836        H  0.55022127  0.15835091  0.37389800     0.38700
C837        C  0.38937826  0.03946736  0.49160136     0.02800
C838        C  0.39476921  0.07247536  0.47300787    -0.13300
C839        C  0.41364854  0.07104547  0.43892143     0.00300
C840        C  0.43086409  0.03783425  0.42614852    -0.11900
C841        C  0.41313195  0.00573984  0.44036592     0.02800
C842        C  0.39588938  0.00608541  0.47428041    -0.11300
H843        H  0.38384162  0.09818230  0.48445465     0.08400
H844        H  0.44773845  0.03660516  0.40059029     0.05900
H845        H  0.38332915  0.48091921  0.48609103     0.05800
C846        C  0.57560066  0.04760474  0.24461961     0.02800
C847        C  0.59652054  0.01836747  0.26322077    -0.13300
C848        C  0.58888985  0.01424727  0.29912472     0.00300
C849        C  0.55906311  0.04003158  0.31680310    -0.11900
C850        C  0.53732646  0.06940224  0.29841502     0.02800
C851        C  0.54581314  0.07272295  0.26254817    -0.11300
H852        H  0.62073197  0.99932414  0.24999032     0.08400
H853        H  0.55385867  0.03780856  0.34458903     0.05900
H854        H  0.52979946  0.09557354  0.24871298     0.05800
O855        O  0.38141685  0.47185967  0.13606462    -0.81200
O856        O  0.58405091  0.08038861  0.05874663    -0.65900
O857        O  0.35749492  0.03759209  0.10719719    -1.12500
C858        C  0.58883401  0.05372563  0.20744083     1.05700
O859        O  0.57658885  0.12218890  0.09970698    -0.79100
O860        O  0.62732428  0.12525432  0.15914825    -0.66700
Ni861      Ni  0.38640514  0.49364185  0.09169995     1.34900
C862        C  0.33852390  0.11673408  0.16601257     0.84400
O863        O  0.33952535  0.05860597  0.03892790    -0.79700
O864        O  0.39348362  0.01245830  0.04591792    -0.89900
C865        C  0.57823874  0.11307419  0.06774014     0.84000
O866        O  0.66164600  0.46727048  0.07833513    -0.68100
O867        O  0.56344795  0.07627781  0.18936327    -0.87400
C868        C  0.61966174  0.47757890  0.06738766     0.84800
C869        C  0.37351288  0.03753144  0.02784417     1.06400
H870        H  0.57962919  0.03599611  0.12570018     0.38200
O871        O  0.60409921  0.05519506  0.12629136    -1.10100
O872        O  0.35525337  0.08446458  0.16248377    -0.66700
Ni873      Ni  0.65960239  0.03739618  0.15158326     1.26300
O874        O  0.60615231  0.01093176  0.06779434    -0.67000
O875        O  0.62640074  0.03685260  0.19548737    -0.79200
C876        C  0.39381166  0.48460068  0.16541760     0.83400
O877        O  0.38231914  0.01666624  0.17414240    -0.66400
Ni878      Ni  0.57117283  0.09748784  0.14350853     1.27400
Ni879      Ni  0.63697303  0.05694102  0.08187298     1.26100
H880        H  0.38355555  0.05564555  0.10725097     0.38700
C881        C  0.38947094  0.42458288  0.74161324     0.02800
C882        C  0.39485851  0.39156425  0.72301202    -0.13300
C883        C  0.41372824  0.39297041  0.68892453     0.00300
C884        C  0.43091957  0.42618204  0.67615422    -0.11900
C885        C  0.41317821  0.45828971  0.69037789     0.02800
C886        C  0.39596107  0.45795977  0.72430124    -0.11300
H887        H  0.38394001  0.36586431  0.73445800     0.08400
H888        H  0.44780278  0.42739391  0.65059953     0.05900
H889        H  0.38341054  0.48312901  0.73612934     0.05800
C890        C  0.57558376  0.41642858  0.99463803     0.02800
C891        C  0.59647088  0.44567697  0.51325872    -0.13300
C892        C  0.58885564  0.44978581  0.54916864     0.00300
C893        C  0.55907176  0.42397298  0.56683519    -0.11900
C894        C  0.53733482  0.39459654  0.54842661     0.02800
C895        C  0.54581324  0.39129336  0.51255101    -0.11300
H896        H  0.62065686  0.46473379  0.00003667     0.08400
H897        H  0.55388614  0.42618739  0.59462517     0.05900
H898        H  0.52981933  0.36843738  0.99869642     0.05800
O899        O  0.57673680  0.34183379  0.84970955    -0.81200
O900        O  0.38240073  0.44733771  0.92410784    -0.65900
O901        O  0.60413412  0.40883375  0.87630844    -1.12500
C902        C  0.37360581  0.42652684  0.77785523     1.05700
O903        O  0.38113508  0.49217687  0.88610479    -0.79100
O904        O  0.66176966  0.49674530  0.82815310    -0.66700
Ni905      Ni  0.57117885  0.36657418  0.89349957     1.34900
C906        C  0.61969576  0.48646695  0.81733549     0.84400
O907        O  0.62652746  0.42706948  0.94554314    -0.79700
O908        O  0.56332778  0.38786313  0.93932330    -0.89900
C909        C  0.39373989  0.47943314  0.91540743     0.84000
O910        O  0.62727900  0.33882219  0.90926310    -0.68100
O911        O  0.39374881  0.45149997  0.79598628    -0.87400
C912        C  0.33854282  0.34728102  0.91601267     0.84800
C913        C  0.58883479  0.41031033  0.95745247     1.06400
H914        H  0.38352141  0.40839951  0.85717563     0.38200
O915        O  0.35747198  0.42646142  0.85717020    -1.10100
O916        O  0.60605880  0.45314457  0.81788609    -0.66700
Ni917      Ni  0.63694036  0.40713380  0.83185530     1.26300
O918        O  0.35535782  0.37951178  0.91236905    -0.67000
O919        O  0.33943731  0.40556947  0.78887207    -0.79200
C920        C  0.57831616  0.35093042  0.81774084     0.84200
O921        O  0.58402341  0.38362602  0.80874745    -0.66400
Ni922      Ni  0.38643107  0.47039022  0.84173810     1.27400
Ni923      Ni  0.65966143  0.42659686  0.90158960     1.26100
H924        H  0.57968195  0.42804652  0.87576479     0.38700
C925        C  0.40891358  0.29756827  0.98650800     0.02800
C926        C  0.42979951  0.26831883  0.96788812    -0.13300
C927        C  0.42218559  0.26421034  0.93197763     0.00300
C928        C  0.39240378  0.29002445  0.91431006    -0.11900
C929        C  0.37066770  0.31940139  0.93271808     0.02800
C930        C  0.37914530  0.32270437  0.96859390    -0.11300
H931        H  0.45398411  0.24926144  0.98111113     0.08400
H932        H  0.38721888  0.28781052  0.88651985     0.05900
H933        H  0.36315237  0.34556093  0.98244784     0.05800
C934        C  0.55613847  0.28941395  0.73953454     0.02800
C935        C  0.56152562  0.32243300  0.75813492    -0.13300
C936        C  0.58039302  0.32102777  0.79222323     0.00300
C937        C  0.59758202  0.28781616  0.80499610    -0.11900
C938        C  0.57984260  0.25570792  0.79077180     0.02800
C939        C  0.56262818  0.25603727  0.75684732    -0.11300
H940        H  0.55060801  0.34813271  0.74668765     0.08400
H941        H  0.61446299  0.28660495  0.83055196     0.05900
H942        H  0.55007863  0.23086784  0.74501892     0.05800
O943        O  0.41007498  0.37216650  0.63143639    -0.81200
O944        O  0.54906694  0.26665938  0.55703950    -0.65900
O945        O  0.43746852  0.30516536  0.60483738    -1.12500
C946        C  0.54027272  0.28746996  0.70329252     1.05700
O947        O  0.54780188  0.22182052  0.59504301    -0.79100
O948        O  0.49509982  0.21725200  0.65299221    -0.66700
Ni949      Ni  0.40451322  0.34742520  0.58764605     1.34900
C950        C  0.45302735  0.22753129  0.66381096     0.84400
O951        O  0.45985991  0.28692960  0.53560299    -0.79700
O952        O  0.39665837  0.32613452  0.54182269    -0.89900
C953        C  0.56040672  0.23456399  0.56574065     0.84000
O954        O  0.46061238  0.37517619  0.57188021    -0.68100
O955        O  0.56041321  0.26249553  0.68516235    -0.87400
C956        C  0.50520969  0.36671722  0.56513184     0.84800
C957        C  0.42216555  0.30368752  0.52369365     1.06400
H958        H  0.55018972  0.30559775  0.62397219     0.38200
O959        O  0.52413945  0.28753633  0.62397709    -1.10100
O960        O  0.43939257  0.26085434  0.66326111    -0.66700
Ni961      Ni  0.47027511  0.30686474  0.64929113     1.26300
O962        O  0.52202527  0.33448671  0.56877773    -0.67000
O963        O  0.50610631  0.30842907  0.69227466    -0.79200
C964        C  0.41165243  0.36306898  0.66340523     0.84200
O965        O  0.41735864  0.33037307  0.67239795    -0.66400
Ni966      Ni  0.55309620  0.24360644  0.63941006     1.27400
Ni967      Ni  0.49299505  0.28740164  0.57955696     1.26100
H968        H  0.41301631  0.28595292  0.60538064     0.38700
C969        C  0.40893009  0.16639306  0.73652647     0.02800
C970        C  0.37914418  0.14127450  0.71859677    -0.13300
C971        C  0.37065894  0.14459472  0.68272962     0.00300
C972        C  0.39239555  0.17396551  0.66434204    -0.11900
C973        C  0.42222064  0.19975088  0.68202138     0.02800
C974        C  0.42984949  0.19563099  0.71792601    -0.11300
H975        H  0.36313098  0.11842363  0.73243137     0.08400
H976        H  0.38719230  0.17618789  0.63655582     0.05900
H977        H  0.45405989  0.21467461  0.73115751     0.05800
C978        C  0.55604515  0.17452973  0.98954651     0.02800
C979        C  0.56143555  0.14152144  0.50813931    -0.13300
C980        C  0.58031404  0.14295034  0.54222612     0.00300
C981        C  0.59752882  0.17616128  0.55500096    -0.11900
C982        C  0.57979875  0.20825650  0.54078302     0.02800
C983        C  0.56255753  0.20791146  0.50686780    -0.11300
H984        H  0.55050738  0.11581491  0.99669163     0.08400
H985        H  0.61440169  0.17738942  0.58056018     0.05900
H986        H  0.54999865  0.23307799  0.49505683     0.05800
O987        O  0.54808001  0.24213708  0.84508380    -0.81200
O988        O  0.41738360  0.13360664  0.92239870    -0.65900
O989        O  0.52416037  0.17640410  0.87395083    -1.12500
C990        C  0.42216416  0.16027073  0.77370542     1.05700
O991        O  0.40992786  0.09180495  0.88143880    -0.79100
O992        O  0.46065756  0.08874165  0.82199441    -0.66700
Ni993      Ni  0.55306905  0.22035502  0.88944854     1.34900
C994        C  0.50519073  0.09726210  0.81513207     0.84400
O995        O  0.50619113  0.15539079  0.94221981    -0.79700
O996        O  0.56014863  0.20153876  0.93523046    -0.89900
C997        C  0.41157435  0.10092057  0.91340578     0.84000
O998        O  0.49497596  0.24672572  0.90281235    -0.68100
O999        O  0.39677746  0.13771904  0.79178280    -0.87400
C1000       C  0.45299206  0.23641705  0.91375922     0.84800
C1001       C  0.54017858  0.17646566  0.95330388     1.06400
H1002       H  0.41296135  0.17799874  0.85544490     0.38200
O1003       O  0.43743207  0.15879993  0.85485451    -1.10100
O1004       O  0.52192054  0.12953113  0.81866407    -0.66700
Ni1005     Ni  0.49293474  0.17659926  0.82956384     1.26300
O1006       O  0.43948329  0.20306395  0.91335199    -0.67000
O1007       O  0.45973289  0.17714190  0.78565897    -0.79200
C1008       C  0.56047577  0.22939637  0.81573122     0.84200
O1009       O  0.54898414  0.19733057  0.80700594    -0.66400
Ni1010     Ni  0.40450679  0.11650682  0.83763698     1.27400
Ni1011     Ni  0.47030541  0.15705486  0.89927385     1.26100
H1012       H  0.55022158  0.15835079  0.87389789     0.38700
C1013       C  0.38937813  0.03946737  0.99160134     0.02800
C1014       C  0.39476913  0.07247538  0.97300784    -0.13300
C1015       C  0.41364857  0.07104550  0.93892143     0.00300
C1016       C  0.43086406  0.03783426  0.92614847    -0.11900
C1017       C  0.41313180  0.00573986  0.94036589     0.02800
C1018       C  0.39588918  0.00608539  0.97428040    -0.11300
H1019       H  0.38384146  0.09818232  0.98445458     0.08400
H1020       H  0.44773838  0.03660516  0.90059022     0.05900
H1021       H  0.38332910  0.48091923  0.98609097     0.05800
C1022       C  0.57560058  0.04760474  0.74461961     0.02800
C1023       C  0.59652061  0.01836752  0.76322074    -0.13300
C1024       C  0.58888992  0.01424728  0.79912468     0.00300
C1025       C  0.55906328  0.04003156  0.81680314    -0.11900
C1026       C  0.53732653  0.06940224  0.79841512     0.02800
C1027       C  0.54581309  0.07272294  0.76254824    -0.11300
H1028       H  0.62073211  0.99932422  0.74999026     0.08400
H1029       H  0.55385893  0.03780846  0.84458907     0.05900
H1030       H  0.52979933  0.09557353  0.74871312     0.05800
O1031       O  0.38141673  0.47185967  0.63606462    -0.81200
O1032       O  0.58405095  0.08038864  0.55874662    -0.65900
O1033       O  0.35749491  0.03759207  0.60719721    -1.12500
C1034       C  0.58883396  0.05372564  0.70744082     1.05700
O1035       O  0.57658905  0.12218889  0.59970700    -0.79100
O1036       O  0.62732439  0.12525429  0.65914826    -0.66700
Ni1037     Ni  0.38640508  0.49364184  0.59169995     1.34900
C1038       C  0.33852397  0.11673408  0.66601254     0.84400
O1039       O  0.33952533  0.05860591  0.53892787    -0.79700
O1040       O  0.39348379  0.01245836  0.54591794    -0.89900
C1041       C  0.57823882  0.11307421  0.56774017     0.84000
O1042       O  0.66164603  0.46727047  0.57833508    -0.68100
O1043       O  0.56344788  0.07627777  0.68936324    -0.87400
C1044       C  0.61966174  0.47757888  0.56738763     0.84800
C1045       C  0.37351296  0.03753143  0.52784417     1.06400
H1046       H  0.57962916  0.03599610  0.62570019     0.38200
O1047       O  0.60409922  0.05519504  0.62629138    -1.10100
O1048       O  0.35525349  0.08446460  0.66248375    -0.66700
Ni1049     Ni  0.65960241  0.03739618  0.65158330     1.26300
O1050       O  0.60615232  0.01093181  0.56779427    -0.67000
O1051       O  0.62640079  0.03685268  0.69548742    -0.79200
C1052       C  0.39381154  0.48460065  0.66541761     0.83400
O1053       O  0.38231912  0.01666621  0.67414244    -0.66400
Ni1054     Ni  0.57117292  0.09748783  0.64350853     1.27400
Ni1055     Ni  0.63697304  0.05694102  0.58187298     1.26100
H1056       H  0.38355549  0.05564555  0.60725102     0.38700
C1057       C  0.38947087  0.92458285  0.24161322     0.02800
C1058       C  0.39485848  0.89156421  0.22301200    -0.13300
C1059       C  0.41372824  0.89297039  0.18892449     0.00300
C1060       C  0.43091955  0.92618201  0.17615410    -0.11900
C1061       C  0.41317823  0.95828968  0.19037787     0.02800
C1062       C  0.39596109  0.95795973  0.22430126    -0.11300
H1063       H  0.38394002  0.86586425  0.23445799     0.08400
H1064       H  0.44780270  0.92739389  0.15059945     0.05900
H1065       H  0.38341065  0.98312898  0.23612940     0.05800
C1066       C  0.57558361  0.91642856  0.49463805     0.02800
C1067       C  0.59647090  0.94567703  0.01325865    -0.13300
C1068       C  0.58885567  0.94978581  0.04916864     0.00300
C1069       C  0.55907178  0.92397297  0.06683527    -0.11900
C1070       C  0.53733478  0.89459654  0.04842663     0.02800
C1071       C  0.54581331  0.89129329  0.01255102    -0.11300
H1072       H  0.62065681  0.96473368  0.50003663     0.08400
H1073       H  0.55388623  0.92618737  0.09462522     0.05900
H1074       H  0.52981917  0.86843741  0.49869648     0.05800
O1075       O  0.57673679  0.84183375  0.34970955    -0.81200
O1076       O  0.38240077  0.94733766  0.42410788    -0.65900
O1077       O  0.60413418  0.90883366  0.37630844    -1.12500
C1078       C  0.37360575  0.92652685  0.27785523     1.05700
O1079       O  0.38113485  0.99217685  0.38610487    -0.79100
O1080       O  0.66176967  0.99674530  0.32815313    -0.66700
Ni1081     Ni  0.57117878  0.86657411  0.39349958     1.34900
C1082       C  0.61969575  0.98646692  0.31733554     0.84400
O1083       O  0.62652732  0.92706944  0.44554314    -0.79700
O1084       O  0.56332766  0.88786303  0.43932333    -0.89900
C1085       C  0.39373986  0.97943311  0.41540747     0.84000
O1086       O  0.62727891  0.83882216  0.40926313    -0.68100
O1087       O  0.39374889  0.95149993  0.29598630    -0.87400
C1088       C  0.33854283  0.84728097  0.41601270     0.84800
C1089       C  0.58883463  0.91031029  0.45745248     1.06400
H1090       H  0.38352165  0.90839937  0.35717561     0.38200
O1091       O  0.35747202  0.92646137  0.35717019    -1.10100
O1092       O  0.60605883  0.95314453  0.31788613    -0.66700
Ni1093     Ni  0.63694040  0.90713378  0.33185527     1.26300
O1094       O  0.35535785  0.87951173  0.41236909    -0.67000
O1095       O  0.33943710  0.90556959  0.28887200    -0.79200
C1096       C  0.57831622  0.85093038  0.31774084     0.84200
O1097       O  0.58402346  0.88362597  0.30874742    -0.66400
Ni1098     Ni  0.38643103  0.97039025  0.34173814     1.27400
Ni1099     Ni  0.65966146  0.92659680  0.40158961     1.26100
H1100       H  0.57968205  0.92804645  0.37576481     0.38700
C1101       C  0.40891372  0.79756836  0.48650797     0.02800
C1102       C  0.42979948  0.76831886  0.46788810    -0.13300
C1103       C  0.42218548  0.76421028  0.43197766     0.00300
C1104       C  0.39240376  0.79002441  0.41431007    -0.11900
C1105       C  0.37066771  0.81940136  0.43271809     0.02800
C1106       C  0.37914534  0.82270439  0.46859390    -0.11300
H1107       H  0.45398412  0.74926148  0.48111113     0.08400
H1108       H  0.38721890  0.78781050  0.38651985     0.05900
H1109       H  0.36315236  0.84556094  0.48244781     0.05800
C1110       C  0.55613838  0.78941393  0.23953456     0.02800
C1111       C  0.56152546  0.82243296  0.25813497    -0.13300
C1112       C  0.58039304  0.82102773  0.29222323     0.00300
C1113       C  0.59758202  0.78781614  0.30499610    -0.11900
C1114       C  0.57984246  0.75570793  0.29077183     0.02800
C1115       C  0.56262800  0.75603728  0.25684737    -0.11300
H1116       H  0.55060770  0.84813265  0.24668774     0.08400
H1117       H  0.61446308  0.78660493  0.33055194     0.05900
H1118       H  0.55007847  0.73086784  0.24501898     0.05800
O1119       O  0.41007495  0.87216650  0.13143639    -0.81200
O1120       O  0.54906691  0.76665943  0.05703958    -0.65900
O1121       O  0.43746834  0.80516530  0.10483742    -1.12500
C1122       C  0.54027270  0.78746991  0.20329252     1.05700
O1123       O  0.54780197  0.72182052  0.09504303    -0.79100
O1124       O  0.49509988  0.71725203  0.15299225    -0.66700
Ni1125     Ni  0.40451315  0.84742522  0.08764606     1.34900
C1126       C  0.45302737  0.72753132  0.16381094     0.84400
O1127       O  0.45985984  0.78692958  0.03560305    -0.79700
O1128       O  0.39665842  0.82613463  0.04182268    -0.89900
C1129       C  0.56040674  0.73456405  0.06574067     0.84000
O1130       O  0.46061234  0.87517623  0.07188031    -0.68100
O1131       O  0.56041312  0.76249542  0.18516240    -0.87400
C1132       C  0.50520962  0.86671723  0.06513183     0.84800
C1133       C  0.42216561  0.80368760  0.02369366     1.06400
H1134       H  0.55018951  0.80559756  0.12397216     0.38200
O1135       O  0.52413938  0.78753627  0.12397710    -1.10100
O1136       O  0.43939254  0.76085435  0.16326105    -0.66700
Ni1137     Ni  0.47027508  0.80686472  0.14929110     1.26300
O1138       O  0.52202511  0.83448669  0.06877764    -0.67000
O1139       O  0.50610639  0.80842908  0.19227461    -0.79200
C1140       C  0.41165247  0.86306897  0.16340521     0.84200
O1141       O  0.41735871  0.83037307  0.17239793    -0.66400
Ni1142     Ni  0.55309624  0.74360641  0.13941009     1.27400
Ni1143     Ni  0.49299493  0.78740161  0.07955699     1.26100
H1144       H  0.41301597  0.78595273  0.10538072     0.38700
C1145       C  0.40893017  0.66639300  0.23652645     0.02800
C1146       C  0.37914425  0.64127444  0.21859678    -0.13300
C1147       C  0.37065896  0.64459469  0.18272961     0.00300
C1148       C  0.39239558  0.67396548  0.16434198    -0.11900
C1149       C  0.42222068  0.69975086  0.18202135     0.02800
C1150       C  0.42984960  0.69563093  0.21792600    -0.11300
H1151       H  0.36313102  0.61842358  0.23243140     0.08400
H1152       H  0.38719226  0.67618784  0.13655580     0.05900
H1153       H  0.45406003  0.71467452  0.23115751     0.05800
C1154       C  0.55604492  0.67452976  0.48954656     0.02800
C1155       C  0.56143543  0.64152154  0.00813931    -0.13300
C1156       C  0.58031406  0.64295037  0.04222609     0.00300
C1157       C  0.59752883  0.67616131  0.05500100    -0.11900
C1158       C  0.57979875  0.70825658  0.04078300     0.02800
C1159       C  0.56255755  0.70791161  0.00686773    -0.11300
H1160       H  0.55050764  0.61581493  0.49669172     0.08400
H1161       H  0.61440166  0.67738944  0.08056017     0.05900
H1162       H  0.54999875  0.73307812  0.99505676     0.05800
O1163       O  0.54808009  0.74213706  0.34508383    -0.81200
O1164       O  0.41738366  0.63360658  0.42239869    -0.65900
O1165       O  0.52416039  0.67640421  0.37395087    -1.12500
C1166       C  0.42216417  0.66027067  0.27370543     1.05700
O1167       O  0.40992795  0.59180489  0.38143879    -0.79100
O1168       O  0.46065763  0.58874173  0.32199439    -0.66700
Ni1169     Ni  0.55306903  0.72035509  0.38944860     1.34900
C1170       C  0.50519076  0.59726219  0.31513198     0.84400
O1171       O  0.50619103  0.65539073  0.44221980    -0.79700
O1172       O  0.56014840  0.70153878  0.43523052    -0.89900
C1173       C  0.41157435  0.60092053  0.41340579     0.84000
O1174       O  0.49497589  0.74672576  0.40281238    -0.68100
O1175       O  0.39677748  0.63771897  0.29178280    -0.87400
C1176       C  0.45299201  0.73641701  0.41375924     0.84800
C1177       C  0.54017837  0.67646565  0.45330391     1.06400
H1178       H  0.41296141  0.67799869  0.35544495     0.38200
O1179       O  0.43743214  0.65879989  0.35485453    -1.10100
O1180       O  0.52192066  0.62953118  0.31866408    -0.66700
Ni1181     Ni  0.49293476  0.67659927  0.32956384     1.26300
O1182       O  0.43948330  0.70306391  0.41335202    -0.67000
O1183       O  0.45973286  0.67714188  0.28565900    -0.79200
C1184       C  0.56047580  0.72939635  0.31573123     0.84200
O1185       O  0.54898413  0.69733056  0.30700591    -0.66400
Ni1186     Ni  0.40450684  0.61650678  0.33763700     1.27400
Ni1187     Ni  0.47030544  0.65705485  0.39927385     1.26100
H1188       H  0.55022155  0.65835110  0.37389796     0.38700
C1189       C  0.38937817  0.53946737  0.49160136     0.02800
C1190       C  0.39476913  0.57247538  0.47300788    -0.13300
C1191       C  0.41364848  0.57104548  0.43892144     0.00300
C1192       C  0.43086408  0.53783426  0.42614852    -0.11900
C1193       C  0.41313189  0.50573985  0.44036593     0.02800
C1194       C  0.39588925  0.50608539  0.47428042    -0.11300
H1195       H  0.38384151  0.59818232  0.48445465     0.08400
H1196       H  0.44773847  0.53660518  0.40059031     0.05900
H1197       H  0.38332934  0.98091921  0.48609105     0.05800
C1198       C  0.57560065  0.54760473  0.24461960     0.02800
C1199       C  0.59652059  0.51836750  0.26322075    -0.13300
C1200       C  0.58888985  0.51424736  0.29912471     0.00300
C1201       C  0.55906312  0.54003166  0.31680310    -0.11900
C1202       C  0.53732648  0.56940232  0.29841504     0.02800
C1203       C  0.54581322  0.57272295  0.26254820    -0.11300
H1204       H  0.62073203  0.49932417  0.24999033     0.08400
H1205       H  0.55385864  0.53780859  0.34458902     0.05900
H1206       H  0.52979956  0.59557357  0.24871300     0.05800
O1207       O  0.38141677  0.97185963  0.13606463    -0.81200
O1208       O  0.58405083  0.58038862  0.05874664    -0.65900
O1209       O  0.35749493  0.53759218  0.10719720    -1.12500
C1210       C  0.58883399  0.55372562  0.20744081     1.05700
O1211       O  0.57658880  0.62218896  0.09970695    -0.79100
O1212       O  0.62732429  0.62525439  0.15914825    -0.66700
Ni1213     Ni  0.38640505  0.99364177  0.09169994     1.34900
C1214       C  0.33852383  0.61673412  0.16601258     0.84400
O1215       O  0.33952544  0.55860599  0.03892791    -0.79700
O1216       O  0.39348376  0.51245834  0.04591793    -0.89900
C1217       C  0.57823875  0.61307421  0.06774012     0.84000
O1218       O  0.66164606  0.96727046  0.07833506    -0.68100
O1219       O  0.56344793  0.57627779  0.18936325    -0.87400
C1220       C  0.61966175  0.97757887  0.06738765     0.84800
C1221       C  0.37351297  0.53753145  0.02784417     1.06400
H1222       H  0.57962891  0.53599596  0.12570018     0.38200
O1223       O  0.60409910  0.55519504  0.12629136    -1.10100
O1224       O  0.35525322  0.58446461  0.16248379    -0.66700
Ni1225     Ni  0.65960236  0.53739620  0.15158326     1.26300
O1226       O  0.60615232  0.51093179  0.06779428    -0.67000
O1227       O  0.62640076  0.53685260  0.19548738    -0.79200
C1228       C  0.39381160  0.98460065  0.16541761     0.83400
O1229       O  0.38231911  0.51666626  0.17414241    -0.66400
Ni1230     Ni  0.57117280  0.59748789  0.14350853     1.27400
Ni1231     Ni  0.63697299  0.55694105  0.08187298     1.26100
H1232       H  0.38355562  0.55564582  0.10725097     0.38700
C1233       C  0.38947095  0.92458283  0.74161325     0.02800
C1234       C  0.39485850  0.89156419  0.72301202    -0.13300
C1235       C  0.41372835  0.89297035  0.68892455     0.00300
C1236       C  0.43091962  0.92618200  0.67615422    -0.11900
C1237       C  0.41317815  0.95828965  0.69037790     0.02800
C1238       C  0.39596100  0.95795971  0.72430124    -0.11300
H1239       H  0.38393995  0.86586425  0.73445798     0.08400
H1240       H  0.44780283  0.92739389  0.65059954     0.05900
H1241       H  0.38341047  0.98312894  0.73612935     0.05800
C1242       C  0.57558371  0.91642854  0.99463803     0.02800
C1243       C  0.59647086  0.94567698  0.51325868    -0.13300
C1244       C  0.58885566  0.94978584  0.54916863     0.00300
C1245       C  0.55907192  0.92397293  0.56683523    -0.11900
C1246       C  0.53733489  0.89459651  0.54842665     0.02800
C1247       C  0.54581322  0.89129334  0.51255104    -0.11300
H1248       H  0.62065678  0.96473376  0.00003662     0.08400
H1249       H  0.55388641  0.92618735  0.59462522     0.05900
H1250       H  0.52981937  0.86843731  0.99869647     0.05800
O1251       O  0.57673673  0.84183371  0.84970956    -0.81200
O1252       O  0.38240067  0.94733769  0.92410785    -0.65900
O1253       O  0.60413419  0.90883363  0.87630844    -1.12500
C1254       C  0.37360592  0.92652683  0.77785526     1.05700
O1255       O  0.38113493  0.99217685  0.88610480    -0.79100
O1256       O  0.66176961  0.99674526  0.82815309    -0.66700
Ni1257     Ni  0.57117879  0.86657411  0.89349956     1.34900
C1258       C  0.61969572  0.98646689  0.81733549     0.84400
O1259       O  0.62652740  0.92706941  0.94554313    -0.79700
O1260       O  0.56332771  0.88786306  0.93932330    -0.89900
C1261       C  0.39373977  0.97943312  0.91540744     0.84000
O1262       O  0.62727892  0.83882212  0.90926310    -0.68100
O1263       O  0.39374903  0.95149993  0.79598630    -0.87400
C1264       C  0.33854281  0.84728095  0.91601265     0.84800
C1265       C  0.58883471  0.91031026  0.95745247     1.06400
H1266       H  0.38352142  0.90839953  0.85717560     0.38200
O1267       O  0.35747197  0.92646142  0.85717019    -1.10100
O1268       O  0.60605872  0.95314451  0.81788612    -0.66700
Ni1269     Ni  0.63694036  0.90713377  0.83185529     1.26300
O1270       O  0.35535783  0.87951172  0.91236905    -0.67000
O1271       O  0.33943726  0.90556958  0.78887205    -0.79200
C1272       C  0.57831610  0.85093036  0.81774084     0.84200
O1273       O  0.58402336  0.88362596  0.80874745    -0.66400
Ni1274     Ni  0.38643106  0.97039025  0.84173811     1.27400
Ni1275     Ni  0.65966142  0.92659679  0.90158960     1.26100
H1276       H  0.57968222  0.92804631  0.87576482     0.38700
C1277       C  0.40891375  0.79756837  0.98650797     0.02800
C1278       C  0.42979961  0.76831891  0.96788811    -0.13300
C1279       C  0.42218560  0.76421031  0.93197765     0.00300
C1280       C  0.39240388  0.79002443  0.91431005    -0.11900
C1281       C  0.37066772  0.81940133  0.93271807     0.02800
C1282       C  0.37914529  0.82270435  0.96859389    -0.11300
H1283       H  0.45398423  0.74926150  0.98111113     0.08400
H1284       H  0.38721907  0.78781049  0.88651984     0.05900
H1285       H  0.36315221  0.84556084  0.98244782     0.05800
C1286       C  0.55613840  0.78941391  0.73953454     0.02800
C1287       C  0.56152555  0.82243295  0.75813493    -0.13300
C1288       C  0.58039301  0.82102772  0.79222321     0.00300
C1289       C  0.59758211  0.78781615  0.80499603    -0.11900
C1290       C  0.57984260  0.75570791  0.79077178     0.02800
C1291       C  0.56262812  0.75603724  0.75684733    -0.11300
H1292       H  0.55060789  0.84813265  0.74668767     0.08400
H1293       H  0.61446318  0.78660496  0.83055187     0.05900
H1294       H  0.55007855  0.73086781  0.74501895     0.05800
O1295       O  0.41007490  0.87216651  0.63143641    -0.81200
O1296       O  0.54906707  0.76665946  0.55703957    -0.65900
O1297       O  0.43746841  0.80516527  0.60483737    -1.12500
C1298       C  0.54027265  0.78746990  0.70329252     1.05700
O1299       O  0.54780177  0.72182052  0.59504298    -0.79100
O1300       O  0.49509980  0.71725202  0.65299217    -0.66700
Ni1301     Ni  0.40451320  0.84742522  0.58764604     1.34900
C1302       C  0.45302737  0.72753132  0.66381098     0.84400
O1303       O  0.45986001  0.78692964  0.53560298    -0.79700
O1304       O  0.39665848  0.82613459  0.54182267    -0.89900
C1305       C  0.56040669  0.73456404  0.56574064     0.84000
O1306       O  0.46061235  0.87517625  0.57188023    -0.68100
O1307       O  0.56041314  0.76249547  0.68516235    -0.87400
C1308       C  0.50520966  0.86671725  0.56513186     0.84800
C1309       C  0.42216569  0.80368761  0.52369362     1.06400
H1310       H  0.55018949  0.80559755  0.62397221     0.38200
O1311       O  0.52413935  0.78753626  0.62397711    -1.10100
O1312       O  0.43939258  0.76085436  0.66326117    -0.66700
Ni1313     Ni  0.47027503  0.80686470  0.64929112     1.26300
O1314       O  0.52202517  0.83448672  0.56877776    -0.67000
O1315       O  0.50610625  0.80842903  0.69227465    -0.79200
C1316       C  0.41165241  0.86306897  0.66340523     0.84200
O1317       O  0.41735857  0.83037304  0.67239791    -0.66400
Ni1318     Ni  0.55309616  0.74360641  0.63941004     1.27400
Ni1319     Ni  0.49299502  0.78740162  0.57955696     1.26100
H1320       H  0.41301608  0.78595269  0.60538064     0.38700
C1321       C  0.40893007  0.66639303  0.73652647     0.02800
C1322       C  0.37914421  0.64127449  0.71859673    -0.13300
C1323       C  0.37065897  0.64459473  0.68272959     0.00300
C1324       C  0.39239559  0.67396554  0.66434204    -0.11900
C1325       C  0.42222070  0.69975086  0.68202139     0.02800
C1326       C  0.42984951  0.69563097  0.71792603    -0.11300
H1327       H  0.36313100  0.61842359  0.73243130     0.08400
H1328       H  0.38719226  0.67618799  0.63655583     0.05900
H1329       H  0.45405986  0.71467460  0.73115756     0.05800
C1330       C  0.55604508  0.67452980  0.98954651     0.02800
C1331       C  0.56143552  0.64152153  0.50813936    -0.13300
C1332       C  0.58031405  0.64295040  0.54222613     0.00300
C1333       C  0.59752875  0.67616134  0.55500095    -0.11900
C1334       C  0.57979868  0.70825657  0.54078298     0.02800
C1335       C  0.56255745  0.70791155  0.50686776    -0.11300
H1336       H  0.55050734  0.61581497  0.99669169     0.08400
H1337       H  0.61440164  0.67738952  0.58056016     0.05900
H1338       H  0.54999865  0.73307806  0.49505676     0.05800
O1339       O  0.54808017  0.74213713  0.84508382    -0.81200
O1340       O  0.41738371  0.63360657  0.92239870    -0.65900
O1341       O  0.52416029  0.67640427  0.87395083    -1.12500
C1342       C  0.42216411  0.66027068  0.77370542     1.05700
O1343       O  0.40992788  0.59180490  0.88143879    -0.79100
O1344       O  0.46065763  0.58874175  0.82199438    -0.66700
Ni1345     Ni  0.55306904  0.72035511  0.88944856     1.34900
C1346       C  0.50519079  0.59726219  0.81513206     0.84400
O1347       O  0.50619103  0.65539087  0.94221983    -0.79700
O1348       O  0.56014858  0.70153879  0.93523047    -0.89900
C1349       C  0.41157437  0.60092052  0.91340578     0.84000
O1350       O  0.49497588  0.74672574  0.90281233    -0.68100
O1351       O  0.39677745  0.63771899  0.79178281    -0.87400
C1352       C  0.45299201  0.73641701  0.91375922     0.84800
C1353       C  0.54017852  0.67646570  0.95330388     1.06400
H1354       H  0.41296138  0.67799867  0.85544492     0.38200
O1355       O  0.43743213  0.65879989  0.85485451    -1.10100
O1356       O  0.52192065  0.62953121  0.81866412    -0.66700
Ni1357     Ni  0.49293470  0.67659931  0.82956383     1.26300
O1358       O  0.43948322  0.70306393  0.91335197    -0.67000
O1359       O  0.45973285  0.67714187  0.78565897    -0.79200
C1360       C  0.56047580  0.72939639  0.81573122     0.84200
O1361       O  0.54898406  0.69733061  0.80700592    -0.66400
Ni1362     Ni  0.40450684  0.61650679  0.83763698     1.27400
Ni1363     Ni  0.47030543  0.65705488  0.89927385     1.26100
H1364       H  0.55022142  0.65835113  0.87389787     0.38700
C1365       C  0.38937817  0.53946737  0.99160133     0.02800
C1366       C  0.39476928  0.57247537  0.97300787    -0.13300
C1367       C  0.41364863  0.57104546  0.93892144     0.00300
C1368       C  0.43086422  0.53783425  0.92614853    -0.11900
C1369       C  0.41313197  0.50573984  0.94036590     0.02800
C1370       C  0.39588921  0.50608540  0.97428036    -0.11300
H1371       H  0.38384175  0.59818232  0.98445465     0.08400
H1372       H  0.44773858  0.53660519  0.90059028     0.05900
H1373       H  0.38332913  0.98091922  0.98609103     0.05800
C1374       C  0.57560050  0.54760477  0.74461961     0.02800
C1375       C  0.59652056  0.51836757  0.76322075    -0.13300
C1376       C  0.58888990  0.51424735  0.79912470     0.00300
C1377       C  0.55906323  0.54003163  0.81680315    -0.11900
C1378       C  0.53732648  0.56940231  0.79841511     0.02800
C1379       C  0.54581307  0.57272300  0.76254823    -0.11300
H1380       H  0.62073207  0.49932428  0.74999028     0.08400
H1381       H  0.55385891  0.53780856  0.84458908     0.05900
H1382       H  0.52979938  0.59557361  0.74871311     0.05800
O1383       O  0.38141696  0.97185962  0.63606459    -0.81200
O1384       O  0.58405091  0.58038864  0.55874663    -0.65900
O1385       O  0.35749496  0.53759218  0.60719724    -1.12500
C1386       C  0.58883387  0.55372562  0.70744081     1.05700
O1387       O  0.57658906  0.62218894  0.59970699    -0.79100
O1388       O  0.62732440  0.62525440  0.65914821    -0.66700
Ni1389     Ni  0.38640520  0.99364180  0.59169993     1.34900
C1390       C  0.33852392  0.61673415  0.66601253     0.84400
O1391       O  0.33952534  0.55860597  0.53892789    -0.79700
O1392       O  0.39348365  0.51245834  0.54591793    -0.89900
C1393       C  0.57823889  0.61307422  0.56774017     0.84000
O1394       O  0.66164605  0.96727050  0.57833507    -0.68100
O1395       O  0.56344785  0.57627780  0.68936323    -0.87400
C1396       C  0.61966176  0.97757891  0.56738761     0.84800
C1397       C  0.37351288  0.53753145  0.52784417     1.06400
H1398       H  0.57962889  0.53599595  0.62570019     0.38200
O1399       O  0.60409911  0.55519501  0.62629137    -1.10100
O1400       O  0.35525335  0.58446463  0.66248378    -0.66700
Ni1401     Ni  0.65960236  0.53739620  0.65158330     1.26300
O1402       O  0.60615231  0.51093177  0.56779428    -0.67000
O1403       O  0.62640066  0.53685261  0.69548741    -0.79200
C1404       C  0.39381157  0.98460061  0.66541762     0.83400
O1405       O  0.38231907  0.51666624  0.67414246    -0.66400
Ni1406     Ni  0.57117291  0.59748789  0.64350852     1.27400
Ni1407     Ni  0.63697300  0.55694103  0.58187300     1.26100
H1408       H  0.38355570  0.55564579  0.60725104     0.38700
C1409       C  0.72280423  0.42458290  0.24161321     0.02800
C1410       C  0.72819187  0.39156426  0.22301199    -0.13300
C1411       C  0.74706161  0.39297044  0.18892448     0.00300
C1412       C  0.76425293  0.42618206  0.17615409    -0.11900
C1413       C  0.74651161  0.45828974  0.19037787     0.02800
C1414       C  0.72929443  0.45795980  0.22430126    -0.11300
H1415       H  0.71727340  0.36586431  0.23445798     0.08400
H1416       H  0.78113605  0.42739393  0.15059942     0.05900
H1417       H  0.71674391  0.48312903  0.23612938     0.05800
C1418       C  0.90891696  0.41642860  0.49463804     0.02800
C1419       C  0.92980423  0.44567705  0.01325868    -0.13300
C1420       C  0.92218896  0.44978585  0.04916865     0.00300
C1421       C  0.89240512  0.42397298  0.06683526    -0.11900
C1422       C  0.87066818  0.39459653  0.04842662     0.02800
C1423       C  0.87914668  0.39129332  0.01255100    -0.11300
H1424       H  0.95399020  0.46473370  0.50003668     0.08400
H1425       H  0.88721953  0.42618738  0.09462521     0.05900
H1426       H  0.86315252  0.36843745  0.49869646     0.05800
O1427       O  0.91006993  0.34183381  0.34970954    -0.81200
O1428       O  0.71573399  0.44733773  0.42410791    -0.65900
O1429       O  0.93746747  0.40883372  0.37630845    -1.12500
C1430       C  0.70693910  0.42652685  0.27785522     1.05700
O1431       O  0.71446826  0.49217685  0.38610483    -0.79100
O1432       O  0.99510298  0.49674525  0.32815315    -0.66700
Ni1433     Ni  0.90451209  0.36657418  0.39349959     1.34900
C1434       C  0.95302903  0.48646695  0.31733554     0.84400
O1435       O  0.95986069  0.42706952  0.44554314    -0.79700
O1436       O  0.89666106  0.38786310  0.43932334    -0.89900
C1437       C  0.72707314  0.47943314  0.41540747     0.84000
O1438       O  0.96061228  0.33882225  0.40926310    -0.68100
O1439       O  0.72708221  0.45149992  0.29598629    -0.87400
C1440       C  0.67187615  0.34728103  0.41601270     0.84800
C1441       C  0.92216801  0.41031035  0.45745248     1.06400
H1442       H  0.71685497  0.40839937  0.35717563     0.38200
O1443       O  0.69080536  0.42646138  0.35717020    -1.10100
O1444       O  0.93939201  0.45314459  0.31788611    -0.66700
Ni1445     Ni  0.97027368  0.40713381  0.33185527     1.26300
O1446       O  0.68869121  0.37951178  0.41236911    -0.67000
O1447       O  0.67277051  0.40556955  0.28887200    -0.79200
C1448       C  0.91164951  0.35093042  0.31774083     0.84200
O1449       O  0.91735674  0.38362602  0.30874741    -0.66400
Ni1450     Ni  0.71976438  0.47039021  0.34173812     1.27400
Ni1451     Ni  0.99299479  0.42659684  0.40158961     1.26100
H1452       H  0.91301536  0.42804652  0.37576484     0.38700
C1453       C  0.74224696  0.29756831  0.48650798     0.02800
C1454       C  0.76313285  0.26831888  0.46788808    -0.13300
C1455       C  0.75551887  0.26421034  0.43197764     0.00300
C1456       C  0.72573711  0.29002447  0.41431007    -0.11900
C1457       C  0.70400096  0.31940136  0.43271811     0.02800
C1458       C  0.71247850  0.32270432  0.46859393    -0.11300
H1459       H  0.78731753  0.24926153  0.48111108     0.08400
H1460       H  0.72055231  0.28781062  0.38651984     0.05900
H1461       H  0.69648547  0.34556083  0.48244788     0.05800
C1462       C  0.88947155  0.28941396  0.23953459     0.02800
C1463       C  0.89485878  0.32243300  0.25813498    -0.13300
C1464       C  0.91372640  0.32102778  0.29222321     0.00300
C1465       C  0.93091535  0.28781618  0.30499607    -0.11900
C1466       C  0.91317584  0.25570796  0.29077181     0.02800
C1467       C  0.89596131  0.25603730  0.25684738    -0.11300
H1468       H  0.88394110  0.34813270  0.24668774     0.08400
H1469       H  0.94779638  0.28660496  0.33055194     0.05900
H1470       H  0.88341183  0.23086785  0.24501897     0.05800
O1471       O  0.74340833  0.37216650  0.13143639    -0.81200
O1472       O  0.88240027  0.26665938  0.05703955    -0.65900
O1473       O  0.77080178  0.30516537  0.10483741    -1.12500
C1474       C  0.87360593  0.28746995  0.20329254     1.05700
O1475       O  0.88113538  0.22182052  0.09504305    -0.79100
O1476       O  0.82843323  0.21725200  0.15299225    -0.66700
Ni1477     Ni  0.73784651  0.34742521  0.08764605     1.34900
C1478       C  0.78636073  0.22753128  0.16381092     0.84400
O1479       O  0.79319326  0.28692957  0.03560304    -0.79700
O1480       O  0.72999173  0.32613451  0.04182270    -0.89900
C1481       C  0.89374013  0.23456401  0.06574068     0.84000
O1482       O  0.79394572  0.37517619  0.07188027    -0.68100
O1483       O  0.89374641  0.26249548  0.18516242    -0.87400
C1484       C  0.83854303  0.36671721  0.06513182     0.84800
C1485       C  0.75549895  0.30368752  0.02369368     1.06400
H1486       H  0.88352328  0.30559790  0.12397216     0.38200
O1487       O  0.85747284  0.28753638  0.12397709    -1.10100
O1488       O  0.77272592  0.26085433  0.16326102    -0.66700
Ni1489     Ni  0.80360848  0.30686477  0.14929111     1.26300
O1490       O  0.85535855  0.33448668  0.06877764    -0.67000
O1491       O  0.83943968  0.30842914  0.19227460    -0.79200
C1492       C  0.74498585  0.36306899  0.16340521     0.84200
O1493       O  0.75069208  0.33037309  0.17239796    -0.66400
Ni1494     Ni  0.88642958  0.24360646  0.13941010     1.27400
Ni1495     Ni  0.82632837  0.28740165  0.07955699     1.26100
H1496       H  0.74634952  0.28595295  0.10538072     0.38700
C1497       C  0.74226343  0.16639308  0.23652646     0.02800
C1498       C  0.71247745  0.14127457  0.21859679    -0.13300
C1499       C  0.70399226  0.14459471  0.18272961     0.00300
C1500       C  0.72572893  0.17396548  0.16434198    -0.11900
C1501       C  0.75555400  0.19975088  0.18202135     0.02800
C1502       C  0.76318293  0.19563096  0.21792600    -0.11300
H1503       H  0.69646414  0.11842375  0.23243143     0.08400
H1504       H  0.72052572  0.17618785  0.13655579     0.05900
H1505       H  0.78739340  0.21467454  0.23115749     0.05800
C1506       C  0.88937831  0.17452970  0.48954655     0.02800
C1507       C  0.89476870  0.14152144  0.00813927    -0.13300
C1508       C  0.91364724  0.14295031  0.04222611     0.00300
C1509       C  0.93086214  0.17616124  0.05500100    -0.11900
C1510       C  0.91313212  0.20825650  0.04078304     0.02800
C1511       C  0.89589098  0.20791150  0.00686777    -0.11300
H1512       H  0.88384096  0.11581488  0.49669167     0.08400
H1513       H  0.94773504  0.17738933  0.08056015     0.05900
H1514       H  0.88333217  0.23307805  0.99505680     0.05800
O1515       O  0.88141349  0.24213705  0.34508385    -0.81200
O1516       O  0.75071691  0.13360662  0.42239871    -0.65900
O1517       O  0.85749360  0.17640415  0.37395087    -1.12500
C1518       C  0.75549746  0.16027075  0.27370544     1.05700
O1519       O  0.74326133  0.09180494  0.38143880    -0.79100
O1520       O  0.79399099  0.08874167  0.32199440    -0.66700
Ni1521     Ni  0.88640239  0.22035501  0.38944859     1.34900
C1522       C  0.83852412  0.09726214  0.31513199     0.84400
O1523       O  0.83952431  0.15539077  0.44221980    -0.79700
O1524       O  0.89348178  0.20153876  0.43523052    -0.89900
C1525       C  0.74490771  0.10092056  0.41340580     0.84000
O1526       O  0.82830929  0.24672573  0.40281239    -0.68100
O1527       O  0.73011081  0.13771901  0.29178280    -0.87400
C1528       C  0.78632539  0.23641705  0.41375924     0.84800
C1529       C  0.87351171  0.17646565  0.45330390     1.06400
H1530       H  0.74629469  0.17799875  0.35544490     0.38200
O1531       O  0.77076541  0.15879994  0.35485451    -1.10100
O1532       O  0.85525396  0.12953115  0.31866406    -0.66700
Ni1533     Ni  0.82626806  0.17659928  0.32956384     1.26300
O1534       O  0.77281659  0.20306395  0.41335202    -0.67000
O1535       O  0.79306616  0.17714195  0.28565899    -0.79200
C1536       C  0.89380917  0.22939636  0.31573124     0.84200
O1537       O  0.88231749  0.19733058  0.30700592    -0.66400
Ni1538     Ni  0.73784021  0.11650681  0.33763699     1.27400
Ni1539     Ni  0.80363866  0.15705488  0.39927385     1.26100
H1540       H  0.88355457  0.15835091  0.37389800     0.38700
C1541       C  0.72271156  0.03946737  0.49160136     0.02800
C1542       C  0.72810251  0.07247536  0.47300788    -0.13300
C1543       C  0.74698184  0.07104548  0.43892144     0.00300
C1544       C  0.76419741  0.03783425  0.42614853    -0.11900
C1545       C  0.74646526  0.00573984  0.44036593     0.02800
C1546       C  0.72922268  0.00608541  0.47428041    -0.11300
H1547       H  0.71717492  0.09818230  0.48445465     0.08400
H1548       H  0.78107179  0.03660517  0.40059031     0.05900
H1549       H  0.71666245  0.48091921  0.48609103     0.05800
C1550       C  0.90893400  0.04760472  0.24461961     0.02800
C1551       C  0.92985386  0.01836745  0.26322076    -0.13300
C1552       C  0.92222317  0.01424726  0.29912472     0.00300
C1553       C  0.89239646  0.04003158  0.31680310    -0.11900
C1554       C  0.87065987  0.06940227  0.29841504     0.02800
C1555       C  0.87914654  0.07272294  0.26254819    -0.11300
H1556       H  0.95406529  0.99932411  0.24999031     0.08400
H1557       H  0.88719199  0.03780852  0.34458902     0.05900
H1558       H  0.86313286  0.09557354  0.24871300     0.05800
O1559       O  0.71475015  0.47185967  0.13606462    -0.81200
O1560       O  0.91738422  0.08038861  0.05874663    -0.65900
O1561       O  0.69082824  0.03759209  0.10719719    -1.12500
C1562       C  0.92216739  0.05372563  0.20744083     1.05700
O1563       O  0.90992216  0.12218890  0.09970698    -0.79100
O1564       O  0.96065763  0.12525431  0.15914826    -0.66700
Ni1565     Ni  0.71973845  0.49364184  0.09169995     1.34900
C1566       C  0.67185721  0.11673408  0.16601257     0.84400
O1567       O  0.67285868  0.05860592  0.03892789    -0.79700
O1568       O  0.72681712  0.01245836  0.04591794    -0.89900
C1569       C  0.91157204  0.11307419  0.06774014     0.84000
O1570       O  0.99497933  0.46727049  0.07833513    -0.68100
O1571       O  0.89678129  0.07627777  0.18936326    -0.87400
C1572       C  0.95299506  0.47757890  0.06738767     0.84800
C1573       C  0.70684628  0.03753143  0.02784416     1.06400
H1574       H  0.91296251  0.03599610  0.12570018     0.38200
O1575       O  0.93743254  0.05519506  0.12629137    -1.10100
O1576       O  0.68858668  0.08446458  0.16248377    -0.66700
Ni1577     Ni  0.99293575  0.03739619  0.15158326     1.26300
O1578       O  0.93948563  0.01093176  0.06779433    -0.67000
O1579       O  0.95973417  0.03685265  0.19548739    -0.79200
C1580       C  0.72714496  0.48460068  0.16541760     0.83400
O1581       O  0.71565245  0.01666624  0.17414240    -0.66400
Ni1582     Ni  0.90450616  0.09748783  0.14350853     1.27400
Ni1583     Ni  0.97030635  0.05694103  0.08187299     1.26100
H1584       H  0.71688884  0.05564556  0.10725097     0.38700
C1585       C  0.72280424  0.42458288  0.74161325     0.02800
C1586       C  0.72819181  0.39156424  0.72301202    -0.13300
C1587       C  0.74706155  0.39297041  0.68892453     0.00300
C1588       C  0.76425289  0.42618203  0.67615423    -0.11900
C1589       C  0.74651152  0.45828971  0.69037791     0.02800
C1590       C  0.72929437  0.45795977  0.72430125    -0.11300
H1591       H  0.71727331  0.36586431  0.73445800     0.08400
H1592       H  0.78113612  0.42739390  0.65059955     0.05900
H1593       H  0.71674384  0.48312901  0.73612935     0.05800
C1594       C  0.90891707  0.41642858  0.99463803     0.02800
C1595       C  0.92980421  0.44567699  0.51325870    -0.13300
C1596       C  0.92218901  0.44978583  0.54916863     0.00300
C1597       C  0.89240527  0.42397293  0.56683522    -0.11900
C1598       C  0.87066828  0.39459651  0.54842664     0.02800
C1599       C  0.87914659  0.39129336  0.51255102    -0.11300
H1600       H  0.95399016  0.46473379  0.00003667     0.08400
H1601       H  0.88721973  0.42618736  0.59462520     0.05900
H1602       H  0.86315272  0.36843735  0.99869645     0.05800
O1603       O  0.91007010  0.34183379  0.84970956    -0.81200
O1604       O  0.71573403  0.44733772  0.92410784    -0.65900
O1605       O  0.93746744  0.40883375  0.87630844    -1.12500
C1606       C  0.70693911  0.42652684  0.77785523     1.05700
O1607       O  0.71446838  0.49217687  0.88610479    -0.79100
O1608       O  0.99510299  0.49674529  0.82815310    -0.66700
Ni1609     Ni  0.90451215  0.36657418  0.89349957     1.34900
C1610       C  0.95302908  0.48646695  0.81733550     0.84400
O1611       O  0.95986077  0.42706949  0.94554314    -0.79700
O1612       O  0.89666108  0.38786313  0.93932330    -0.89900
C1613       C  0.72707319  0.47943314  0.91540743     0.84000
O1614       O  0.96061227  0.33882220  0.90926310    -0.68100
O1615       O  0.72708212  0.45149997  0.79598628    -0.87400
C1616       C  0.67187619  0.34728101  0.91601266     0.84800
C1617       C  0.92216809  0.41031033  0.95745247     1.06400
H1618       H  0.71685472  0.40839952  0.85717562     0.38200
O1619       O  0.69080528  0.42646142  0.85717020    -1.10100
O1620       O  0.93939210  0.45314457  0.81788610    -0.66700
Ni1621     Ni  0.97027366  0.40713381  0.83185530     1.26300
O1622       O  0.68869119  0.37951179  0.91236905    -0.67000
O1623       O  0.67277062  0.40556947  0.78887207    -0.79200
C1624       C  0.91164947  0.35093042  0.81774084     0.84200
O1625       O  0.91735670  0.38362602  0.80874745    -0.66400
Ni1626     Ni  0.71976437  0.47039022  0.84173810     1.27400
Ni1627     Ni  0.99299476  0.42659686  0.90158960     1.26100
H1628       H  0.91301527  0.42804652  0.87576480     0.38700
C1629       C  0.74224708  0.29756831  0.98650798     0.02800
C1630       C  0.76313301  0.26831889  0.96788809    -0.13300
C1631       C  0.75551901  0.26421034  0.93197763     0.00300
C1632       C  0.72573727  0.29002448  0.91431005    -0.11900
C1633       C  0.70400112  0.31940138  0.93271807     0.02800
C1634       C  0.71247870  0.32270434  0.96859391    -0.11300
H1635       H  0.78731765  0.24926149  0.98111109     0.08400
H1636       H  0.72055245  0.28781056  0.88651983     0.05900
H1637       H  0.69648566  0.34556084  0.98244786     0.05800
C1638       C  0.88947177  0.28941395  0.73953454     0.02800
C1639       C  0.89485893  0.32243300  0.75813492    -0.13300
C1640       C  0.91372633  0.32102777  0.79222323     0.00300
C1641       C  0.93091533  0.28781617  0.80499610    -0.11900
C1642       C  0.91317591  0.25570792  0.79077180     0.02800
C1643       C  0.89596148  0.25603727  0.75684732    -0.11300
H1644       H  0.88394131  0.34813271  0.74668765     0.08400
H1645       H  0.94779630  0.28660495  0.83055196     0.05900
H1646       H  0.88341194  0.23086784  0.74501892     0.05800
O1647       O  0.74340828  0.37216650  0.63143639    -0.81200
O1648       O  0.88240040  0.26665941  0.55703954    -0.65900
O1649       O  0.77080183  0.30516535  0.60483737    -1.12500
C1650       C  0.87360603  0.28746996  0.70329252     1.05700
O1651       O  0.88113517  0.22182052  0.59504300    -0.79100
O1652       O  0.82843316  0.21725201  0.65299220    -0.66700
Ni1653     Ni  0.73784655  0.34742521  0.58764604     1.34900
C1654       C  0.78636070  0.22753129  0.66381096     0.84400
O1655       O  0.79319330  0.28692959  0.53560298    -0.79700
O1656       O  0.72999175  0.32613452  0.54182269    -0.89900
C1657       C  0.89374008  0.23456400  0.56574065     0.84000
O1658       O  0.79394573  0.37517621  0.57188020    -0.68100
O1659       O  0.89374651  0.26249553  0.68516235    -0.87400
C1660       C  0.83854306  0.36671722  0.56513186     0.84800
C1661       C  0.75549893  0.30368754  0.52369364     1.06400
H1662       H  0.88352302  0.30559776  0.62397220     0.38200
O1663       O  0.85747276  0.28753634  0.62397710    -1.10100
O1664       O  0.77272588  0.26085433  0.66326111    -0.66700
Ni1665     Ni  0.80360841  0.30686474  0.64929113     1.26300
O1666       O  0.85535859  0.33448671  0.56877774    -0.67000
O1667       O  0.83943961  0.30842907  0.69227466    -0.79200
C1668       C  0.74498573  0.36306898  0.66340523     0.84200
O1669       O  0.75069195  0.33037307  0.67239795    -0.66400
Ni1670     Ni  0.88642952  0.24360645  0.63941005     1.27400
Ni1671     Ni  0.82632841  0.28740164  0.57955696     1.26100
H1672       H  0.74634962  0.28595291  0.60538063     0.38700
C1673       C  0.74226342  0.16639308  0.73652647     0.02800
C1674       C  0.71247758  0.14127451  0.71859674    -0.13300
C1675       C  0.70399236  0.14459470  0.68272960     0.00300
C1676       C  0.72572895  0.17396551  0.66434205    -0.11900
C1677       C  0.75555405  0.19975086  0.68202139     0.02800
C1678       C  0.76318286  0.19563100  0.71792603    -0.11300
H1679       H  0.69646436  0.11842363  0.73243134     0.08400
H1680       H  0.72052564  0.17618797  0.63655583     0.05900
H1681       H  0.78739321  0.21467464  0.73115755     0.05800
C1682       C  0.88937845  0.17452973  0.98954651     0.02800
C1683       C  0.89476885  0.14152144  0.50813931    -0.13300
C1684       C  0.91364734  0.14295033  0.54222612     0.00300
C1685       C  0.93086212  0.17616127  0.55500096    -0.11900
C1686       C  0.91313206  0.20825649  0.54078302     0.02800
C1687       C  0.89589084  0.20791146  0.50686780    -0.11300
H1688       H  0.88384069  0.11581491  0.99669163     0.08400
H1689       H  0.94773500  0.17738941  0.58056018     0.05900
H1690       H  0.88333196  0.23307798  0.49505683     0.05800
O1691       O  0.88141331  0.24213708  0.84508381    -0.81200
O1692       O  0.75071690  0.13360663  0.92239869    -0.65900
O1693       O  0.85749367  0.17640410  0.87395083    -1.12500
C1694       C  0.75549746  0.16027074  0.77370542     1.05700
O1695       O  0.74326117  0.09180494  0.88143879    -0.79100
O1696       O  0.79399092  0.08874170  0.82199441    -0.66700
Ni1697     Ni  0.88640236  0.22035502  0.88944854     1.34900
C1698       C  0.83852410  0.09726211  0.81513208     0.84400
O1699       O  0.83952443  0.15539079  0.94221981    -0.79700
O1700       O  0.89348193  0.20153876  0.93523046    -0.89900
C1701       C  0.74490767  0.10092056  0.91340578     0.84000
O1702       O  0.82830928  0.24672571  0.90281234    -0.68100
O1703       O  0.73011076  0.13771905  0.79178280    -0.87400
C1704       C  0.78632540  0.23641703  0.91375922     0.84800
C1705       C  0.87351188  0.17646566  0.95330388     1.06400
H1706       H  0.74629467  0.17799873  0.85544490     0.38200
O1707       O  0.77076538  0.15879992  0.85485451    -1.10100
O1708       O  0.85525396  0.12953112  0.81866409    -0.66700
Ni1709     Ni  0.82626806  0.17659925  0.82956384     1.26300
O1710       O  0.77281660  0.20306394  0.91335199    -0.67000
O1711       O  0.79306622  0.17714189  0.78565897    -0.79200
C1712       C  0.89380907  0.22939638  0.81573122     0.84200
O1713       O  0.88231744  0.19733058  0.80700594    -0.66400
Ni1714     Ni  0.73784010  0.11650682  0.83763697     1.27400
Ni1715     Ni  0.80363871  0.15705486  0.89927385     1.26100
H1716       H  0.88355489  0.15835080  0.87389791     0.38700
C1717       C  0.72271151  0.03946738  0.99160133     0.02800
C1718       C  0.72810263  0.07247540  0.97300786    -0.13300
C1719       C  0.74698201  0.07104549  0.93892143     0.00300
C1720       C  0.76419758  0.03783425  0.92614851    -0.11900
C1721       C  0.74646530  0.00573983  0.94036590     0.02800
C1722       C  0.72922256  0.00608540  0.97428037    -0.11300
H1723       H  0.71717504  0.09818234  0.98445461     0.08400
H1724       H  0.78107191  0.03660517  0.90059025     0.05900
H1725       H  0.71666238  0.48091925  0.98609096     0.05800
C1726       C  0.90893389  0.04760474  0.74461961     0.02800
C1727       C  0.92985392  0.01836752  0.76322074    -0.13300
C1728       C  0.92222324  0.01424727  0.79912469     0.00300
C1729       C  0.89239658  0.04003156  0.81680314    -0.11900
C1730       C  0.87065984  0.06940223  0.79841512     0.02800
C1731       C  0.87914640  0.07272293  0.76254824    -0.11300
H1732       H  0.95406541  0.99932422  0.74999026     0.08400
H1733       H  0.88719224  0.03780846  0.84458907     0.05900
H1734       H  0.86313264  0.09557353  0.74871312     0.05800
O1735       O  0.71475029  0.47185967  0.63606459    -0.81200
O1736       O  0.91738426  0.08038863  0.55874662    -0.65900
O1737       O  0.69082822  0.03759206  0.60719722    -1.12500
C1738       C  0.92216727  0.05372563  0.70744082     1.05700
O1739       O  0.90992235  0.12218889  0.59970700    -0.79100
O1740       O  0.96065763  0.12525429  0.65914826    -0.66700
Ni1741     Ni  0.71973843  0.49364185  0.59169992     1.34900
C1742       C  0.67185732  0.11673408  0.66601253     0.84400
O1743       O  0.67285866  0.05860591  0.53892787    -0.79700
O1744       O  0.72681710  0.01245835  0.54591794    -0.89900
C1745       C  0.91157213  0.11307420  0.56774017     0.84000
O1746       O  0.99497937  0.46727049  0.57833507    -0.68100
O1747       O  0.89678118  0.07627776  0.68936324    -0.87400
C1748       C  0.95299509  0.47757891  0.56738762     0.84800
C1749       C  0.70684628  0.03753143  0.52784417     1.06400
H1750       H  0.91296247  0.03599609  0.62570018     0.38200
O1751       O  0.93743253  0.05519503  0.62629138    -1.10100
O1752       O  0.68858681  0.08446458  0.66248374    -0.66700
Ni1753     Ni  0.99293573  0.03739619  0.65158330     1.26300
O1754       O  0.93948563  0.01093178  0.56779427    -0.67000
O1755       O  0.95973410  0.03685267  0.69548742    -0.79200
C1756       C  0.72714491  0.48460066  0.66541762     0.83400
O1757       O  0.71565242  0.01666621  0.67414244    -0.66400
Ni1758     Ni  0.90450620  0.09748781  0.64350852     1.27400
Ni1759     Ni  0.97030636  0.05694101  0.58187298     1.26100
H1760       H  0.71688880  0.05564554  0.60725103     0.38700
C1761       C  0.72280432  0.92458284  0.24161324     0.02800
C1762       C  0.72819184  0.89156421  0.22301201    -0.13300
C1763       C  0.74706154  0.89297039  0.18892449     0.00300
C1764       C  0.76425286  0.92618201  0.17615409    -0.11900
C1765       C  0.74651154  0.95828968  0.19037786     0.02800
C1766       C  0.72929445  0.95795972  0.22430126    -0.11300
H1767       H  0.71727331  0.86586426  0.23445797     0.08400
H1768       H  0.78113601  0.92739390  0.15059943     0.05900
H1769       H  0.71674394  0.98312896  0.23612939     0.05800
C1770       C  0.90891696  0.91642855  0.49463805     0.02800
C1771       C  0.92980421  0.94567704  0.01325864    -0.13300
C1772       C  0.92218899  0.94978581  0.04916864     0.00300
C1773       C  0.89240511  0.92397297  0.06683526    -0.11900
C1774       C  0.87066816  0.89459653  0.04842663     0.02800
C1775       C  0.87914662  0.89129329  0.01255102    -0.11300
H1776       H  0.95399013  0.96473368  0.50003665     0.08400
H1777       H  0.88721954  0.92618737  0.09462522     0.05900
H1778       H  0.86315249  0.86843740  0.49869647     0.05800
O1779       O  0.91007018  0.84183375  0.34970955    -0.81200
O1780       O  0.71573407  0.94733767  0.42410789    -0.65900
O1781       O  0.93746753  0.90883366  0.37630843    -1.12500
C1782       C  0.70693913  0.92652685  0.27785523     1.05700
O1783       O  0.71446841  0.99217685  0.38610484    -0.79100
O1784       O  0.99510299  0.99674528  0.32815311    -0.66700
Ni1785     Ni  0.90451222  0.86657411  0.39349958     1.34900
C1786       C  0.95302907  0.98646691  0.31733554     0.84400
O1787       O  0.95986068  0.92706946  0.44554314    -0.79700
O1788       O  0.89666110  0.88786302  0.43932333    -0.89900
C1789       C  0.72707323  0.97943310  0.41540748     0.84000
O1790       O  0.96061232  0.83882215  0.40926313    -0.68100
O1791       O  0.72708221  0.95149994  0.29598630    -0.87400
C1792       C  0.67187613  0.84728097  0.41601270     0.84800
C1793       C  0.92216802  0.91031027  0.45745249     1.06400
H1794       H  0.71685483  0.90839952  0.35717565     0.38200
O1795       O  0.69080536  0.92646141  0.35717020    -1.10100
O1796       O  0.93939214  0.95314452  0.31788613    -0.66700
Ni1797     Ni  0.97027375  0.90713377  0.33185527     1.26300
O1798       O  0.68869116  0.87951173  0.41236909    -0.67000
O1799       O  0.67277049  0.90556959  0.28887198    -0.79200
C1800       C  0.91164955  0.85093038  0.31774084     0.84200
O1801       O  0.91735677  0.88362597  0.30874742    -0.66400
Ni1802     Ni  0.71976443  0.97039025  0.34173812     1.27400
Ni1803     Ni  0.99299479  0.92659680  0.40158961     1.26100
H1804       H  0.91301536  0.92804643  0.37576480     0.38700
C1805       C  0.74224702  0.79756836  0.48650797     0.02800
C1806       C  0.76313279  0.76831886  0.46788810    -0.13300
C1807       C  0.75551879  0.76421028  0.43197766     0.00300
C1808       C  0.72573707  0.79002441  0.41431007    -0.11900
C1809       C  0.70400101  0.81940136  0.43271809     0.02800
C1810       C  0.71247864  0.82270439  0.46859390    -0.11300
H1811       H  0.78731742  0.74926148  0.48111113     0.08400
H1812       H  0.72055221  0.78781050  0.38651985     0.05900
H1813       H  0.69648567  0.84556094  0.48244781     0.05800
C1814       C  0.88947175  0.78941394  0.23953456     0.02800
C1815       C  0.89485895  0.82243299  0.25813493    -0.13300
C1816       C  0.91372640  0.82102773  0.29222323     0.00300
C1817       C  0.93091533  0.78781613  0.30499611    -0.11900
C1818       C  0.91317577  0.75570793  0.29077183     0.02800
C1819       C  0.89596130  0.75603728  0.25684738    -0.11300
H1820       H  0.88394131  0.84813268  0.24668768     0.08400
H1821       H  0.94779636  0.78660491  0.33055196     0.05900
H1822       H  0.88341173  0.73086784  0.24501899     0.05800
O1823       O  0.74340835  0.87216650  0.13143639    -0.81200
O1824       O  0.88240023  0.76665943  0.05703958    -0.65900
O1825       O  0.77080164  0.80516526  0.10483742    -1.12500
C1826       C  0.87360610  0.78746991  0.20329251     1.05700
O1827       O  0.88113525  0.72182052  0.09504303    -0.79100
O1828       O  0.82843321  0.71725204  0.15299227    -0.66700
Ni1829     Ni  0.73784659  0.84742523  0.08764606     1.34900
C1830       C  0.78636068  0.72753132  0.16381095     0.84400
O1831       O  0.79319316  0.78692957  0.03560305    -0.79700
O1832       O  0.72999180  0.82613465  0.04182268    -0.89900
C1833       C  0.89374004  0.73456405  0.06574067     0.84000
O1834       O  0.79394578  0.87517624  0.07188031    -0.68100
O1835       O  0.89374660  0.76249546  0.18516238    -0.87400
C1836       C  0.83854302  0.86671723  0.06513183     0.84800
C1837       C  0.75549894  0.80368760  0.02369366     1.06400
H1838       H  0.88352282  0.80559757  0.12397216     0.38200
O1839       O  0.85747270  0.78753626  0.12397710    -1.10100
O1840       O  0.77272584  0.76085435  0.16326105    -0.66700
Ni1841     Ni  0.80360839  0.80686470  0.14929110     1.26300
O1842       O  0.85535849  0.83448668  0.06877764    -0.67000
O1843       O  0.83943972  0.80842903  0.19227461    -0.79200
C1844       C  0.74498578  0.86306897  0.16340521     0.84200
O1845       O  0.75069202  0.83037307  0.17239793    -0.66400
Ni1846     Ni  0.88642958  0.74360642  0.13941008     1.27400
Ni1847     Ni  0.82632824  0.78740160  0.07955699     1.26100
H1848       H  0.74634906  0.78595262  0.10538071     0.38700
C1849       C  0.74226348  0.66639300  0.23652645     0.02800
C1850       C  0.71247755  0.64127445  0.21859678    -0.13300
C1851       C  0.70399228  0.64459469  0.18272962     0.00300
C1852       C  0.72572889  0.67396549  0.16434198    -0.11900
C1853       C  0.75555399  0.69975087  0.18202135     0.02800
C1854       C  0.76318291  0.69563093  0.21792600    -0.11300
H1855       H  0.69646433  0.61842358  0.23243140     0.08400
H1856       H  0.72052557  0.67618784  0.13655580     0.05900
H1857       H  0.78739334  0.71467452  0.23115751     0.05800
C1858       C  0.88937834  0.67452977  0.48954655     0.02800
C1859       C  0.89476896  0.64152153  0.00813927    -0.13300
C1860       C  0.91364744  0.64295038  0.04222610     0.00300
C1861       C  0.93086214  0.67616132  0.05500101    -0.11900
C1862       C  0.91313205  0.70825658  0.04078301     0.02800
C1863       C  0.89589085  0.70791161  0.00686774    -0.11300
H1864       H  0.88384092  0.61581493  0.49669172     0.08400
H1865       H  0.94773496  0.67738948  0.08056018     0.05900
H1866       H  0.88333201  0.73307812  0.99505677     0.05800
O1867       O  0.88141339  0.74213706  0.34508383    -0.81200
O1868       O  0.75071697  0.63360658  0.42239869    -0.65900
O1869       O  0.85749370  0.67640421  0.37395087    -1.12500
C1870       C  0.75549747  0.66027067  0.27370543     1.05700
O1871       O  0.74326125  0.59180489  0.38143879    -0.79100
O1872       O  0.79399095  0.58874173  0.32199439    -0.66700
Ni1873     Ni  0.88640234  0.72035510  0.38944859     1.34900
C1874       C  0.83852408  0.59726218  0.31513199     0.84400
O1875       O  0.83952440  0.65539073  0.44221980    -0.79700
O1876       O  0.89348177  0.70153879  0.43523051    -0.89900
C1877       C  0.74490766  0.60092053  0.41340579     0.84000
O1878       O  0.82830919  0.74672576  0.40281238    -0.68100
O1879       O  0.73011078  0.63771897  0.29178280    -0.87400
C1880       C  0.78632532  0.73641701  0.41375924     0.84800
C1881       C  0.87351176  0.67646564  0.45330389     1.06400
H1882       H  0.74629471  0.67799869  0.35544496     0.38200
O1883       O  0.77076544  0.65879989  0.35485453    -1.10100
O1884       O  0.85525397  0.62953118  0.31866408    -0.66700
Ni1885     Ni  0.82626806  0.67659927  0.32956384     1.26300
O1886       O  0.77281661  0.70306391  0.41335202    -0.67000
O1887       O  0.79306616  0.67714188  0.28565900    -0.79200
C1888       C  0.89380910  0.72939635  0.31573123     0.84200
O1889       O  0.88231743  0.69733056  0.30700591    -0.66400
Ni1890     Ni  0.73784015  0.61650678  0.33763700     1.27400
Ni1891     Ni  0.80363875  0.65705485  0.39927385     1.26100
H1892       H  0.88355485  0.65835110  0.37389796     0.38700
C1893       C  0.72271148  0.53946737  0.49160136     0.02800
C1894       C  0.72810243  0.57247538  0.47300788    -0.13300
C1895       C  0.74698178  0.57104547  0.43892144     0.00300
C1896       C  0.76419739  0.53783426  0.42614852    -0.11900
C1897       C  0.74646519  0.50573985  0.44036593     0.02800
C1898       C  0.72922255  0.50608539  0.47428042    -0.11300
H1899       H  0.71717481  0.59818232  0.48445465     0.08400
H1900       H  0.78107178  0.53660518  0.40059031     0.05900
H1901       H  0.71666264  0.98091921  0.48609106     0.05800
C1902       C  0.90893396  0.54760472  0.24461959     0.02800
C1903       C  0.92985392  0.51836749  0.26322073    -0.13300
C1904       C  0.92222326  0.51424737  0.29912471     0.00300
C1905       C  0.89239660  0.54003170  0.31680313    -0.11900
C1906       C  0.87065984  0.56940232  0.29841506     0.02800
C1907       C  0.87914653  0.57272293  0.26254821    -0.11300
H1908       H  0.95406532  0.49932415  0.24999029     0.08400
H1909       H  0.88719224  0.53780864  0.34458905     0.05900
H1910       H  0.86313283  0.59557355  0.24871301     0.05800
O1911       O  0.71475006  0.97185963  0.13606462    -0.81200
O1912       O  0.91738413  0.58038861  0.05874665    -0.65900
O1913       O  0.69082824  0.53759218  0.10719719    -1.12500
C1914       C  0.92216731  0.55372561  0.20744080     1.05700
O1915       O  0.90992236  0.62218896  0.09970696    -0.79100
O1916       O  0.96065759  0.62525441  0.15914826    -0.66700
Ni1917     Ni  0.71973845  0.99364179  0.09169995     1.34900
C1918       C  0.67185721  0.61673411  0.16601257     0.84400
O1919       O  0.67285876  0.55860598  0.03892790    -0.79700
O1920       O  0.72681708  0.51245833  0.04591794    -0.89900
C1921       C  0.91157214  0.61307421  0.06774013     0.84000
O1922       O  0.99497937  0.96727045  0.07833508    -0.68100
O1923       O  0.89678123  0.57627778  0.18936324    -0.87400
C1924       C  0.95299507  0.97757888  0.06738765     0.84800
C1925       C  0.70684633  0.53753146  0.02784418     1.06400
H1926       H  0.91296232  0.53599593  0.12570021     0.38200
O1927       O  0.93743248  0.55519502  0.12629138    -1.10100
O1928       O  0.68858664  0.58446461  0.16248377    -0.66700
Ni1929     Ni  0.99293577  0.53739619  0.15158326     1.26300
O1930       O  0.93948564  0.51093179  0.06779429    -0.67000
O1931       O  0.95973411  0.53685260  0.19548738    -0.79200
C1932       C  0.72714490  0.98460064  0.16541761     0.83400
O1933       O  0.71565241  0.51666626  0.17414241    -0.66400
Ni1934     Ni  0.90450617  0.59748788  0.14350852     1.27400
Ni1935     Ni  0.97030634  0.55694104  0.08187299     1.26100
H1936       H  0.71688893  0.55564582  0.10725096     0.38700
C1937       C  0.72280425  0.92458283  0.74161325     0.02800
C1938       C  0.72819182  0.89156419  0.72301201    -0.13300
C1939       C  0.74706172  0.89297035  0.68892456     0.00300
C1940       C  0.76425294  0.92618202  0.67615422    -0.11900
C1941       C  0.74651144  0.95828965  0.69037790     0.02800
C1942       C  0.72929430  0.95795971  0.72430124    -0.11300
H1943       H  0.71727329  0.86586425  0.73445797     0.08400
H1944       H  0.78113616  0.92739391  0.65059955     0.05900
H1945       H  0.71674378  0.98312894  0.73612936     0.05800
C1946       C  0.90891702  0.91642855  0.99463803     0.02800
C1947       C  0.92980417  0.94567698  0.51325868    -0.13300
C1948       C  0.92218895  0.94978581  0.54916862     0.00300
C1949       C  0.89240524  0.92397291  0.56683522    -0.11900
C1950       C  0.87066818  0.89459651  0.54842664     0.02800
C1951       C  0.87914653  0.89129334  0.51255103    -0.11300
H1952       H  0.95399009  0.96473377  0.00003662     0.08400
H1953       H  0.88721977  0.92618729  0.59462522     0.05900
H1954       H  0.86315268  0.86843730  0.99869648     0.05800
O1955       O  0.91007003  0.84183372  0.84970954    -0.81200
O1956       O  0.71573398  0.94733770  0.92410786    -0.65900
O1957       O  0.93746747  0.90883366  0.87630845    -1.12500
C1958       C  0.70693922  0.92652683  0.77785526     1.05700
O1959       O  0.71446825  0.99217688  0.88610482    -0.79100
O1960       O  0.99510293  0.99674525  0.82815309    -0.66700
Ni1961     Ni  0.90451211  0.86657411  0.89349956     1.34900
C1962       C  0.95302903  0.98646689  0.81733549     0.84400
O1963       O  0.95986071  0.92706941  0.94554313    -0.79700
O1964       O  0.89666102  0.88786306  0.93932330    -0.89900
C1965       C  0.72707316  0.97943313  0.91540744     0.84000
O1966       O  0.96061226  0.83882213  0.90926310    -0.68100
O1967       O  0.72708233  0.95149993  0.79598630    -0.87400
C1968       C  0.67187612  0.84728095  0.91601265     0.84800
C1969       C  0.92216802  0.91031027  0.95745246     1.06400
H1970       H  0.71685472  0.90839953  0.85717560     0.38200
O1971       O  0.69080527  0.92646142  0.85717019    -1.10100
O1972       O  0.93939204  0.95314451  0.81788611    -0.66700
Ni1973     Ni  0.97027367  0.90713378  0.83185530     1.26300
O1974       O  0.68869113  0.87951172  0.91236905    -0.67000
O1975       O  0.67277056  0.90556958  0.78887205    -0.79200
C1976       C  0.91164945  0.85093038  0.81774083     0.84200
O1977       O  0.91735667  0.88362599  0.80874746    -0.66400
Ni1978     Ni  0.71976437  0.97039025  0.84173811     1.27400
Ni1979     Ni  0.99299474  0.92659680  0.90158960     1.26100
H1980       H  0.91301534  0.92804644  0.87576482     0.38700
C1981       C  0.74224706  0.79756836  0.98650798     0.02800
C1982       C  0.76313297  0.76831889  0.96788812    -0.13300
C1983       C  0.75551892  0.76421031  0.93197766     0.00300
C1984       C  0.72573718  0.79002443  0.91431005    -0.11900
C1985       C  0.70400102  0.81940133  0.93271807     0.02800
C1986       C  0.71247859  0.82270434  0.96859389    -0.11300
H1987       H  0.78731761  0.74926152  0.98111113     0.08400
H1988       H  0.72055237  0.78781049  0.88651984     0.05900
H1989       H  0.69648551  0.84556084  0.98244782     0.05800
C1990       C  0.88947172  0.78941391  0.73953455     0.02800
C1991       C  0.89485891  0.82243297  0.75813493    -0.13300
C1992       C  0.91372646  0.82102777  0.79222318     0.00300
C1993       C  0.93091548  0.78781617  0.80499604    -0.11900
C1994       C  0.91317592  0.75570794  0.79077180     0.02800
C1995       C  0.89596144  0.75603725  0.75684735    -0.11300
H1996       H  0.88394117  0.84813265  0.74668767     0.08400
H1997       H  0.94779650  0.78660499  0.83055189     0.05900
H1998       H  0.88341188  0.73086781  0.74501898     0.05800
O1999       O  0.74340825  0.87216651  0.63143641    -0.81200
O2000       O  0.88240037  0.76665945  0.55703956    -0.65900
O2001       O  0.77080178  0.80516528  0.60483739    -1.12500
C2002       C  0.87360598  0.78746990  0.70329253     1.05700
O2003       O  0.88113507  0.72182052  0.59504298    -0.79100
O2004       O  0.82843311  0.71725202  0.65299217    -0.66700
Ni2005     Ni  0.73784652  0.84742521  0.58764605     1.34900
C2006       C  0.78636069  0.72753133  0.66381098     0.84400
O2007       O  0.79319331  0.78692964  0.53560298    -0.79700
O2008       O  0.72999179  0.82613459  0.54182267    -0.89900
C2009       C  0.89374000  0.73456403  0.56574064     0.84000
O2010       O  0.79394566  0.87517625  0.57188023    -0.68100
O2011       O  0.89374646  0.76249546  0.68516236    -0.87400
C2012       C  0.83854296  0.86671725  0.56513186     0.84800
C2013       C  0.75549899  0.80368761  0.52369362     1.06400
H2014       H  0.88352290  0.80559752  0.62397218     0.38200
O2015       O  0.85747274  0.78753625  0.62397709    -1.10100
O2016       O  0.77272594  0.76085437  0.66326117    -0.66700
Ni2017     Ni  0.80360844  0.80686471  0.64929111     1.26300
O2018       O  0.85535848  0.83448672  0.56877776    -0.67000
O2019       O  0.83943963  0.80842904  0.69227465    -0.79200
C2020       C  0.74498587  0.86306897  0.66340523     0.84200
O2021       O  0.75069204  0.83037304  0.67239791    -0.66400
Ni2022     Ni  0.88642948  0.74360639  0.63941004     1.27400
Ni2023     Ni  0.82632836  0.78740162  0.57955696     1.26100
H2024       H  0.74634946  0.78595269  0.60538068     0.38700
C2025       C  0.74226339  0.66639304  0.73652647     0.02800
C2026       C  0.71247753  0.64127450  0.71859674    -0.13300
C2027       C  0.70399233  0.64459472  0.68272959     0.00300
C2028       C  0.72572891  0.67396554  0.66434204    -0.11900
C2029       C  0.75555400  0.69975088  0.68202139     0.02800
C2030       C  0.76318281  0.69563097  0.71792603    -0.11300
H2031       H  0.69646432  0.61842360  0.73243131     0.08400
H2032       H  0.72052557  0.67618799  0.63655583     0.05900
H2033       H  0.78739317  0.71467460  0.73115756     0.05800
C2034       C  0.88937844  0.67452980  0.98954651     0.02800
C2035       C  0.89476883  0.64152153  0.50813936    -0.13300
C2036       C  0.91364736  0.64295039  0.54222614     0.00300
C2037       C  0.93086207  0.67616132  0.55500097    -0.11900
C2038       C  0.91313205  0.70825657  0.54078299     0.02800
C2039       C  0.89589095  0.70791158  0.50686772    -0.11300
H2040       H  0.88384105  0.61581493  0.99669161     0.08400
H2041       H  0.94773492  0.67738950  0.58056019     0.05900
H2042       H  0.88333225  0.73307809  0.49505670     0.05800
O2043       O  0.88141348  0.74213714  0.84508383    -0.81200
O2044       O  0.75071702  0.63360657  0.92239870    -0.65900
O2045       O  0.85749360  0.67640427  0.87395083    -1.12500
C2046       C  0.75549750  0.66027069  0.77370542     1.05700
O2047       O  0.74326116  0.59180490  0.88143879    -0.79100
O2048       O  0.79399096  0.58874173  0.82199440    -0.66700
Ni2049     Ni  0.88640235  0.72035511  0.88944856     1.34900
C2050       C  0.83852411  0.59726218  0.81513206     0.84400
O2051       O  0.83952434  0.65539087  0.94221983    -0.79700
O2052       O  0.89348188  0.70153879  0.93523047    -0.89900
C2053       C  0.74490767  0.60092052  0.91340578     0.84000
O2054       O  0.82830918  0.74672574  0.90281233    -0.68100
O2055       O  0.73011090  0.63771894  0.79178280    -0.87400
C2056       C  0.78632531  0.73641701  0.91375922     0.84800
C2057       C  0.87351183  0.67646570  0.95330388     1.06400
H2058       H  0.74629468  0.67799866  0.85544492     0.38200
O2059       O  0.77076544  0.65879989  0.85485451    -1.10100
O2060       O  0.85525395  0.62953121  0.81866411    -0.66700
Ni2061     Ni  0.82626802  0.67659932  0.82956382     1.26300
O2062       O  0.77281653  0.70306393  0.91335197    -0.67000
O2063       O  0.79306619  0.67714191  0.78565896    -0.79200
C2064       C  0.89380912  0.72939641  0.81573123     0.84200
O2065       O  0.88231738  0.69733063  0.80700592    -0.66400
Ni2066     Ni  0.73784018  0.61650678  0.83763698     1.27400
Ni2067     Ni  0.80363873  0.65705488  0.89927385     1.26100
H2068       H  0.88355473  0.65835113  0.87389787     0.38700
C2069       C  0.72271162  0.53946737  0.99160136     0.02800
C2070       C  0.72810264  0.57247537  0.97300787    -0.13300
C2071       C  0.74698194  0.57104546  0.93892143     0.00300
C2072       C  0.76419753  0.53783425  0.92614851    -0.11900
C2073       C  0.74646528  0.50573984  0.94036590     0.02800
C2074       C  0.72922258  0.50608541  0.97428036    -0.11300
H2075       H  0.71717504  0.59818231  0.98445464     0.08400
H2076       H  0.78107189  0.53660519  0.90059027     0.05900
H2077       H  0.71666240  0.98091924  0.98609098     0.05800
C2078       C  0.90893386  0.54760478  0.74461961     0.02800
C2079       C  0.92985388  0.51836755  0.76322075    -0.13300
C2080       C  0.92222322  0.51424734  0.79912471     0.00300
C2081       C  0.89239654  0.54003162  0.81680315    -0.11900
C2082       C  0.87065983  0.56940233  0.79841511     0.02800
C2083       C  0.87914652  0.57272307  0.76254824    -0.11300
H2084       H  0.95406536  0.49932424  0.74999028     0.08400
H2085       H  0.88719218  0.53780855  0.84458908     0.05900
H2086       H  0.86313294  0.59557372  0.74871312     0.05800
O2087       O  0.71475026  0.97185962  0.63606459    -0.81200
O2088       O  0.91738433  0.58038864  0.55874664    -0.65900
O2089       O  0.69082827  0.53759217  0.60719724    -1.12500
C2090       C  0.92216719  0.55372561  0.70744080     1.05700
O2091       O  0.90992236  0.62218894  0.59970699    -0.79100
O2092       O  0.96065775  0.62525439  0.65914821    -0.66700
Ni2093     Ni  0.71973851  0.99364180  0.59169993     1.34900
C2094       C  0.67185731  0.61673413  0.66601252     0.84400
O2095       O  0.67285864  0.55860598  0.53892789    -0.79700
O2096       O  0.72681692  0.51245834  0.54591792    -0.89900
C2097       C  0.91157222  0.61307421  0.56774017     0.84000
O2098       O  0.99497932  0.96727044  0.57833508    -0.68100
O2099       O  0.89678116  0.57627779  0.68936323    -0.87400
C2100       C  0.95299504  0.97757888  0.56738762     0.84800
C2101       C  0.70684618  0.53753145  0.52784417     1.06400
H2102       H  0.91296208  0.53599583  0.62570015     0.38200
O2103       O  0.93743246  0.55519499  0.62629136    -1.10100
O2104       O  0.68858671  0.58446461  0.66248380    -0.66700
Ni2105     Ni  0.99293571  0.53739619  0.65158329     1.26300
O2106       O  0.93948569  0.51093180  0.56779428    -0.67000
O2107       O  0.95973399  0.53685260  0.69548740    -0.79200
C2108       C  0.72714487  0.98460062  0.66541762     0.83400
O2109       O  0.71565236  0.51666623  0.67414247    -0.66400
Ni2110     Ni  0.90450624  0.59748788  0.64350852     1.27400
Ni2111     Ni  0.97030641  0.55694103  0.58187301     1.26100
H2112       H  0.71688900  0.55564579  0.60725105     0.38700
loop_ 
_geom_bond_atom_site_label_1 
_geom_bond_atom_site_label_2 
_geom_bond_distance 
_geom_bond_site_symmetry_2 
_ccdc_geom_bond_type 
C1            C2   1.416       .  A
C1            C6   1.407       .  A
C1           C22   1.463       .  S
C2            C3   1.410       .  A
C2            H7   1.083       .  S
C3            C4   1.395       .  A
C3           C84   1.475       .  S
C4            C5   1.386       .  A
C4            H8   1.086       .  S
C5            C6   1.387       .  A
C5          C172   1.461       .  S
C6            H9   1.085       .  S
C10         C187   1.409       .  A
C10         C191   1.405       .  A
C10          C33   1.494       .  S
C11          C12   1.407       .  A
C11         C186   1.409   1_554  A
C11         H192   1.084       .  S
C12          C13   1.417       .  A
C12         C164   1.492       .  S
C13          C14   1.418       .  A
C13          H17   1.083       .  S
C14          C15   1.407       .  A
C14          C76   1.488       .  S
C15         C186   1.405   1_554  A
C15         H194   1.084   1_554  S
H16         C187   1.084       .  S
H18         C191   1.084       .  S
O19         Ni25   1.922       .  S
O19          C40   1.277       .  A
O20       Ni1451   1.903   1_455  S
O20          C29   1.263       .  A
O21         Ni25   1.908       .  S
O21         Ni43   1.902       .  S
O21         Ni37   1.929       .  S
O21          H44   0.966       .  S
C22          O39   1.274       .  A
C22          O31   1.275       .  A
O23         Ni42   1.893       .  S
O23          C29   1.269       .  A
O24        Ni746   1.913       .  S
O24          C26   1.267       .  A
Ni25         O28   1.943       .  S
Ni25         O30   1.923       .  S
C26         C496   1.492       .  S
C26          O36   1.278       .  A
O27         Ni43   1.915       .  S
O27          C33   1.274       .  A
O28          C33   1.281       .  A
C29         C489   1.460       .  S
O30         C736   1.269       .  A
O31         Ni42   1.905       .  S
C32          C49   1.488       .  S
C32          O38   1.276       .  A
C32        O1438   1.269   1_455  A
H34          O35   0.966       .  S
O35         Ni42   1.889       .  S
O35       Ni1451   1.907   1_455  S
O35       Ni1445   1.889   1_455  S
O36         Ni37   1.960       .  S
Ni37         O41   1.891       .  S
Ni37        O743   1.919       .  S
Ni37        O739   1.889       .  S
O38       Ni1451   1.944   1_455  S
O39       Ni1445   1.919   1_455  S
C40          C56   1.475       .  S
C40          O41   1.260       .  A
Ni42       O1432   1.913   1_455  S
Ni43        O724   1.903       .  S
Ni43        O742   1.944       .  S
Ni43        O739   1.907       .  S
C45          C46   1.409       .  A
C45          C50   1.405       .  A
C45         C253   1.494       .  S
C46          C47   1.407       .  A
C46          H51   1.084       .  S
C47          C48   1.417       .  A
C47         C120   1.492       .  S
C48          C49   1.418       .  A
C48          H52   1.083       .  S
C49          C50   1.407       .  A
C50          H53   1.084       .  S
C54          C55   1.416       .  A
C54          C59   1.407       .  A
C54          C66   1.463       .  S
C55          C56   1.410       .  A
C55          H60   1.083       .  S
C56          C57   1.395       .  A
C57          C58   1.386       .  A
C57          H61   1.086       .  S
C58          C59   1.387       .  A
C58         C128   1.461       .  S
C59          H62   1.085       .  S
O63         Ni69   1.922       .  S
O63          C84   1.277       .  A
O64         Ni87   1.903       .  S
O64          C73   1.263       .  A
O65         Ni69   1.908       .  S
O65         Ni87   1.902       .  S
O65         Ni81   1.929       .  S
O65          H88   0.966       .  S
C66          O83   1.274       .  A
C66          O75   1.275       .  A
O67         Ni86   1.893       .  S
O67          C73   1.269       .  A
O68         Ni86   1.913       .  S
O68          C70   1.267       .  A
Ni69         O72   1.943       .  S
Ni69         O74   1.923       .  S
C70          C93   1.492       .  S
C70          O80   1.278       .  A
O71         Ni87   1.915       .  S
O71          C77   1.274       .  A
O72          C77   1.281       .  A
C73         C102   1.460       .  S
O74          C76   1.270       .  A
O75         Ni86   1.905       .  S
C76          O82   1.276       .  A
C77         C221   1.494   1_554  S
H78          O79   0.966       .  S
O79         Ni87   1.907       .  S
O79         Ni81   1.889       .  S
O79         Ni86   1.889       .  S
O80         Ni81   1.960       .  S
Ni81         O85   1.891       .  S
Ni81         O83   1.919       .  S
O82         Ni87   1.944       .  S
C84          O85   1.260       .  A
C89          C90   1.405       .  A
C89          C94   1.409       .  A
C89         C110   1.494       .  S
C90          C91   1.406       .  A
C90          H95   1.084       .  S
C91          C92   1.418       .  A
C91         C158   1.488       .  S
C92          C93   1.417       .  A
C92          H96   1.083       .  S
C93          C94   1.407       .  A
C94          H97   1.084       .  S
C98         C275   1.416       .  A
C98         C279   1.407       .  A
C98         C121   1.463       .  S
C99         C100   1.410       .  A
C99         C274   1.416   1_554  A
C99         H280   1.083   1_554  S
C100        C101   1.395       .  A
C100        C161   1.475       .  S
C101        C102   1.385       .  A
C101        H105   1.086       .  S
C102        C103   1.387       .  A
C103        C274   1.407   1_554  A
C103        H106   1.085   1_554  S
H104        C275   1.083       .  S
O107       Ni113   1.893       .  S
O107        C128   1.269       .  A
O108       Ni131   1.891       .  S
O108        C117   1.259       .  A
O109       Ni113   1.890       .  S
O109       Ni131   1.889       .  S
O109       Ni125   1.907       .  S
O109        H132   0.966       .  S
C110        O127   1.274       .  A
C110        O119   1.281       .  A
O111       Ni130   1.922       .  S
O111        C117   1.277       .  A
O112       Ni130   1.923       .  S
O112        C114   1.269       .  A
Ni113       O116   1.905       .  S
Ni113       O118   1.913       .  S
C114        C146   1.488       .  S
C114        O124   1.276       .  A
O115       Ni131   1.918       .  S
O115        C121   1.274       .  A
O116        C121   1.274       .  A
C117        C135   1.475       .  S
O118        C120   1.267       .  A
O119       Ni130   1.943       .  S
C120        O126   1.278       .  A
H122        O123   0.966       .  S
O123       Ni131   1.929       .  S
O123       Ni125   1.903       .  S
O123       Ni130   1.908       .  S
O124       Ni125   1.943       .  S
Ni125       O129   1.903       .  S
Ni125       O127   1.915       .  S
O126       Ni131   1.960       .  S
C128        O129   1.263       .  A
C133        C134   1.416       .  A
C133        C138   1.407       .  A
C133        C341   1.463       .  S
C134        C135   1.410       .  A
C134        H139   1.083       .  S
C135        C136   1.395       .  A
C136        C137   1.385       .  A
C136        H140   1.086       .  S
C137        C138   1.387       .  A
C137        C381   1.460   1_545  S
C138        H493   1.085   1_545  S
H141        C490   1.085       .  S
C142        C143   1.409       .  A
C142        C147   1.405       .  A
C142        C154   1.494       .  S
C143        C144   1.407       .  A
C143        H148   1.084   1_545  S
C144        C145   1.417       .  A
C144        C378   1.492   1_545  S
C145        C146   1.418       .  A
C145        H149   1.083       .  S
C146        C147   1.406       .  A
C147        H150   1.084       .  S
O151       Ni157   1.893       .  S
O151        C172   1.269       .  A
O152       Ni175   1.891       .  S
O152        C161   1.259       .  A
O153       Ni509   1.890   1_545  S
O153      Ni1583   1.889   1_455  S
O153      Ni1577   1.907   1_455  S
O153        H176   0.966       .  S
C154        O171   1.274       .  A
C154        O163   1.281       .  A
O155       Ni174   1.922       .  S
O155        C161   1.277       .  A
O156       Ni174   1.923       .  S
O156        C862   1.269       .  A
Ni157       O512   1.905       .  S
Ni157      O1570   1.913   1_455  S
Ni157       O505   1.890       .  S
C158        O168   1.276       .  A
C158       O1564   1.269   1_455  A
O159      Ni1583   1.918   1_455  S
O159        C165   1.274       .  A
O160       Ni509   1.905   1_545  S
O160        C165   1.274       .  A
O162       Ni861   1.913       .  S
O162        C164   1.267       .  A
O163       Ni174   1.943       .  S
C164        O522   1.278       .  A
C165        C309   1.463   1_554  S
H166        O167   0.966       .  S
O167       Ni175   1.929       .  S
O167       Ni169   1.903       .  S
O167       Ni174   1.908       .  S
O168      Ni1577   1.943   1_455  S
Ni169       O171   1.915       .  S
Ni169       O872   1.943       .  S
Ni169       O877   1.903       .  S
Ni169       O857   1.907       .  S
O170       Ni175   1.960       .  S
O170        C516   1.278   1_545  A
C172        O525   1.263       .  A
O173      Ni1577   1.903   1_455  S
O173        C524   1.263   1_545  A
Ni175       O863   1.918       .  S
Ni175       O857   1.889       .  S
C177        C178   1.416       .  A
C177        C182   1.407       .  A
C177        C198   1.463       .  S
C178        C179   1.410       .  A
C178        H183   1.083       .  S
C179        C180   1.395       .  A
C179        C260   1.475       .  S
C180        C181   1.386       .  A
C180        H184   1.086       .  S
C181        C182   1.387       .  A
C181        C348   1.461       .  S
C182        H185   1.085       .  S
C186        C209   1.494       .  S
C187        C188   1.407       .  A
C188        C189   1.417       .  A
C188        C340   1.492       .  S
C189        C190   1.418       .  A
C189        H193   1.083       .  S
C190        C191   1.407       .  A
C190        C252   1.488       .  S
O195       Ni201   1.922       .  S
O195        C216   1.277       .  A
O196      Ni1627   1.903   1_455  S
O196        C205   1.263       .  A
O197       Ni201   1.908       .  S
O197       Ni219   1.902       .  S
O197       Ni213   1.929       .  S
O197        H220   0.966       .  S
C198        O215   1.274       .  A
C198        O207   1.275       .  A
O199       Ni218   1.893       .  S
O199        C205   1.269       .  A
O200       Ni922   1.913       .  S
O200        C202   1.267       .  A
Ni201       O204   1.943       .  S
Ni201       O206   1.923       .  S
C202        C672   1.492       .  S
C202        O212   1.278       .  A
O203       Ni219   1.915       .  S
O203        C209   1.274       .  A
O204        C209   1.281       .  A
C205        C665   1.460       .  S
O206        C912   1.269       .  A
O207       Ni218   1.905       .  S
C208        C225   1.488       .  S
C208       O1614   1.269   1_455  A
C208        O214   1.276       .  A
H210        O211   0.966       .  S
O211      Ni1627   1.907   1_455  S
O211      Ni1621   1.889   1_455  S
O211       Ni218   1.889       .  S
O212       Ni213   1.960       .  S
Ni213       O217   1.891       .  S
Ni213       O919   1.919       .  S
Ni213       O915   1.889       .  S
O214      Ni1627   1.944   1_455  S
O215      Ni1621   1.919   1_455  S
C216        C232   1.475       .  S
C216        O217   1.260       .  A
Ni218      O1608   1.913   1_455  S
Ni219       O900   1.903       .  S
Ni219       O918   1.944       .  S
Ni219       O915   1.907       .  S
C221        C222   1.409       .  A
C221        C226   1.405       .  A
C222        C223   1.407       .  A
C222        H227   1.084       .  S
C223        C224   1.417       .  A
C223        C296   1.492       .  S
C224        C225   1.418       .  A
C224        H228   1.083       .  S
C225        C226   1.407       .  A
C226        H229   1.084       .  S
C230        C231   1.416       .  A
C230        C235   1.407       .  A
C230        C242   1.463       .  S
C231        C232   1.410       .  A
C231        H236   1.083       .  S
C232        C233   1.395       .  A
C233        C234   1.386       .  A
C233        H237   1.086       .  S
C234        C235   1.387       .  A
C234        C304   1.461       .  S
C235        H238   1.085       .  S
O239       Ni245   1.922       .  S
O239        C260   1.277       .  A
O240       Ni263   1.903       .  S
O240        C249   1.263       .  A
O241       Ni245   1.908       .  S
O241       Ni263   1.902       .  S
O241       Ni257   1.929       .  S
O241        H264   0.966       .  S
C242        O259   1.274       .  A
C242        O251   1.275       .  A
O243       Ni262   1.893       .  S
O243        C249   1.269       .  A
O244       Ni262   1.913       .  S
O244        C246   1.267       .  A
Ni245       O248   1.943       .  S
Ni245       O250   1.923       .  S
C246        C269   1.492       .  S
C246        O256   1.278       .  A
O247       Ni263   1.915       .  S
O247        C253   1.274       .  A
O248        C253   1.281       .  A
C249        C278   1.460       .  S
O250        C252   1.270       .  A
O251       Ni262   1.905       .  S
C252        O258   1.276       .  A
H254        O255   0.966       .  S
O255       Ni263   1.907       .  S
O255       Ni257   1.889       .  S
O255       Ni262   1.889       .  S
O256       Ni257   1.960       .  S
Ni257       O261   1.891       .  S
Ni257       O259   1.919       .  S
O258       Ni263   1.944       .  S
C260        O261   1.260       .  A
C265        C266   1.405       .  A
C265        C270   1.409       .  A
C265        C286   1.494       .  S
C266        C267   1.406       .  A
C266        H271   1.084       .  S
C267        C268   1.418       .  A
C267        C334   1.488       .  S
C268        C269   1.417       .  A
C268        H272   1.083       .  S
C269        C270   1.407       .  A
C270        H273   1.084       .  S
C274        C297   1.463       .  S
C275        C276   1.410       .  A
C276        C277   1.395       .  A
C276        C337   1.475       .  S
C277        C278   1.385       .  A
C277        H281   1.086       .  S
C278        C279   1.387       .  A
C279        H282   1.085       .  S
O283       Ni289   1.893       .  S
O283        C304   1.269       .  A
O284       Ni307   1.891       .  S
O284        C293   1.259       .  A
O285       Ni289   1.890       .  S
O285       Ni307   1.889       .  S
O285       Ni301   1.907       .  S
O285        H308   0.966       .  S
C286        O303   1.274       .  A
C286        O295   1.281       .  A
O287       Ni306   1.922       .  S
O287        C293   1.277       .  A
O288       Ni306   1.923       .  S
O288        C290   1.269       .  A
Ni289       O292   1.905       .  S
Ni289       O294   1.913       .  S
C290        C322   1.488       .  S
C290        O300   1.276       .  A
O291       Ni307   1.918       .  S
O291        C297   1.274       .  A
O292        C297   1.274       .  A
C293        C311   1.475       .  S
O294        C296   1.267       .  A
O295       Ni306   1.943       .  S
C296        O302   1.278       .  A
H298        O299   0.966       .  S
O299       Ni307   1.929       .  S
O299       Ni301   1.903       .  S
O299       Ni306   1.908       .  S
O300       Ni301   1.943       .  S
Ni301       O305   1.903       .  S
Ni301       O303   1.915       .  S
O302       Ni307   1.960       .  S
C304        O305   1.263       .  A
C309        C310   1.416       .  A
C309        C314   1.407       .  A
C310        C311   1.410       .  A
C310        H315   1.083       .  S
C311        C312   1.395       .  A
C312        C313   1.385       .  A
C312        H316   1.086       .  S
C313        C314   1.387       .  A
C313        C557   1.460   1_545  S
C314        H669   1.085   1_545  S
H317        C666   1.085       .  S
C318        C319   1.409       .  A
C318        C323   1.405       .  A
C318        C330   1.494       .  S
C319        C320   1.407       .  A
C319        H324   1.084   1_545  S
C320        C321   1.417       .  A
C320        C554   1.492   1_545  S
C321        C322   1.418       .  A
C321        H325   1.083       .  S
C322        C323   1.406       .  A
C323        H326   1.084       .  S
O327       Ni333   1.893       .  S
O327        C348   1.269       .  A
O328       Ni351   1.891       .  S
O328        C337   1.259       .  A
O329       Ni685   1.890   1_545  S
O329      Ni1759   1.889   1_455  S
O329      Ni1753   1.907   1_455  S
O329        H352   0.966       .  S
C330        O347   1.274       .  A
C330        O339   1.281       .  A
O331       Ni350   1.922       .  S
O331        C337   1.277       .  A
O332       Ni350   1.923       .  S
O332       C1038   1.269       .  A
Ni333       O688   1.905       .  S
Ni333      O1746   1.913   1_455  S
Ni333       O681   1.890       .  S
C334       O1740   1.269   1_455  A
C334        O344   1.276       .  A
O335      Ni1759   1.918   1_455  S
O335        C341   1.274       .  A
O336       Ni685   1.905   1_545  S
O336        C341   1.274       .  A
O338      Ni1037   1.913       .  S
O338        C340   1.267       .  A
O339       Ni350   1.943       .  S
C340        O698   1.278       .  A
H342        O343   0.966       .  S
O343       Ni351   1.929       .  S
O343       Ni345   1.903       .  S
O343       Ni350   1.908       .  S
O344      Ni1753   1.943   1_455  S
Ni345      O1048   1.943       .  S
Ni345      O1053   1.903       .  S
Ni345       O347   1.915       .  S
Ni345      O1033   1.907       .  S
O346       Ni351   1.960       .  S
O346        C692   1.278   1_545  A
C348        O701   1.263       .  A
O349      Ni1753   1.903   1_455  S
O349        C700   1.263   1_545  A
Ni351      O1039   1.918       .  S
Ni351      O1033   1.889       .  S
C353        C354   1.416       .  A
C353        C358   1.407       .  A
C353        C374   1.463       .  S
C354        C355   1.410       .  A
C354        H359   1.083       .  S
C355        C356   1.395       .  A
C355        C436   1.475       .  S
C356        C357   1.386       .  A
C356        H360   1.086       .  S
C357        C358   1.387       .  A
C357        C524   1.461       .  S
C358        H361   1.085       .  S
C362        C539   1.409       .  A
C362        C543   1.405       .  A
C362        C385   1.494       .  S
C363        C538   1.409   1_554  A
C363        C364   1.407       .  A
C363        H544   1.084       .  S
C364        C365   1.417       .  A
C364        C516   1.492       .  S
C365        C366   1.418       .  A
C365        H369   1.083       .  S
C366        C367   1.407       .  A
C366        C428   1.488       .  S
C367        C538   1.405   1_554  A
C367        H546   1.084   1_554  S
H368        C539   1.084       .  S
H370        C543   1.084       .  S
O371       Ni377   1.922       .  S
O371        C392   1.277       .  A
O372      Ni1803   1.903   1_455  S
O372        C381   1.263       .  A
O373       Ni377   1.908       .  S
O373       Ni395   1.902       .  S
O373       Ni389   1.929       .  S
O373        H396   0.966       .  S
C374        O391   1.274       .  A
C374        O383   1.275       .  A
O375       Ni394   1.893       .  S
O375        C381   1.269       .  A
O376      Ni1098   1.913       .  S
O376        C378   1.267       .  A
Ni377       O380   1.943       .  S
Ni377       O382   1.923       .  S
C378        O388   1.278       .  A
O379       Ni395   1.915       .  S
O379        C385   1.274       .  A
O380        C385   1.281       .  A
O382       C1088   1.269       .  A
O383       Ni394   1.905       .  S
C384        C401   1.488       .  S
C384       O1790   1.269   1_455  A
C384        O390   1.276       .  A
H386        O387   0.966       .  S
O387      Ni1803   1.907   1_455  S
O387      Ni1797   1.889   1_455  S
O387       Ni394   1.889       .  S
O388       Ni389   1.960       .  S
Ni389       O393   1.891       .  S
Ni389      O1095   1.919       .  S
Ni389      O1091   1.889       .  S
O390      Ni1803   1.944   1_455  S
O391      Ni1797   1.919   1_455  S
C392        C408   1.475       .  S
C392        O393   1.260       .  A
Ni394      O1784   1.913   1_455  S
Ni395      O1076   1.903       .  S
Ni395      O1094   1.944       .  S
Ni395      O1091   1.907       .  S
C397        C398   1.409       .  A
C397        C402   1.405       .  A
C397        C605   1.494       .  S
C398        C399   1.407       .  A
C398        H403   1.084       .  S
C399        C400   1.417       .  A
C399        C472   1.492       .  S
C400        C401   1.418       .  A
C400        H404   1.083       .  S
C401        C402   1.407       .  A
C402        H405   1.084       .  S
C406        C407   1.416       .  A
C406        C411   1.407       .  A
C406        C418   1.463       .  S
C407        C408   1.410       .  A
C407        H412   1.083       .  S
C408        C409   1.395       .  A
C409        C410   1.386       .  A
C409        H413   1.086       .  S
C410        C411   1.387       .  A
C410        C480   1.461       .  S
C411        H414   1.085       .  S
O415       Ni421   1.922       .  S
O415        C436   1.277       .  A
O416       Ni439   1.903       .  S
O416        C425   1.263       .  A
O417       Ni421   1.908       .  S
O417       Ni439   1.902       .  S
O417       Ni433   1.929       .  S
O417        H440   0.966       .  S
C418        O435   1.274       .  A
C418        O427   1.275       .  A
O419       Ni438   1.893       .  S
O419        C425   1.269       .  A
O420       Ni438   1.913       .  S
O420        C422   1.267       .  A
Ni421       O424   1.943       .  S
Ni421       O426   1.923       .  S
C422        C445   1.492       .  S
C422        O432   1.278       .  A
O423       Ni439   1.915       .  S
O423        C429   1.274       .  A
O424        C429   1.281       .  A
C425        C454   1.460       .  S
O426        C428   1.270       .  A
O427       Ni438   1.905       .  S
C428        O434   1.276       .  A
C429        C573   1.494   1_554  S
H430        O431   0.966       .  S
O431       Ni439   1.907       .  S
O431       Ni433   1.889       .  S
O431       Ni438   1.889       .  S
O432       Ni433   1.960       .  S
Ni433       O437   1.891       .  S
Ni433       O435   1.919       .  S
O434       Ni439   1.944       .  S
C436        O437   1.260       .  A
C441        C442   1.405       .  A
C441        C446   1.409       .  A
C441        C462   1.494       .  S
C442        C443   1.406       .  A
C442        H447   1.084       .  S
C443        C444   1.418       .  A
C443        C510   1.488       .  S
C444        C445   1.417       .  A
C444        H448   1.083       .  S
C445        C446   1.407       .  A
C446        H449   1.084       .  S
C450        C627   1.416       .  A
C450        C631   1.407       .  A
C450        C473   1.463       .  S
C451        C626   1.416   1_554  A
C451        C452   1.410       .  A
C451        H632   1.083   1_554  S
C452        C453   1.395       .  A
C452        C513   1.475       .  S
C453        C454   1.385       .  A
C453        H457   1.086       .  S
C454        C455   1.387       .  A
C455        C626   1.407   1_554  A
C455        H458   1.085   1_554  S
H456        C627   1.083       .  S
O459       Ni465   1.893       .  S
O459        C480   1.269       .  A
O460       Ni483   1.891       .  S
O460        C469   1.259       .  A
O461       Ni465   1.890       .  S
O461       Ni483   1.889       .  S
O461       Ni477   1.907       .  S
O461        H484   0.966       .  S
C462        O479   1.274       .  A
C462        O471   1.281       .  A
O463       Ni482   1.922       .  S
O463        C469   1.277       .  A
O464       Ni482   1.923       .  S
O464        C466   1.269       .  A
Ni465       O468   1.905       .  S
Ni465       O470   1.913       .  S
C466        C498   1.488       .  S
C466        O476   1.276       .  A
O467       Ni483   1.918       .  S
O467        C473   1.274       .  A
O468        C473   1.274       .  A
C469        C487   1.475       .  S
O470        C472   1.267       .  A
O471       Ni482   1.943       .  S
C472        O478   1.278       .  A
H474        O475   0.966       .  S
O475       Ni483   1.929       .  S
O475       Ni477   1.903       .  S
O475       Ni482   1.908       .  S
O476       Ni477   1.943       .  S
Ni477       O481   1.903       .  S
Ni477       O479   1.915       .  S
O478       Ni483   1.960       .  S
C480        O481   1.263       .  A
C485        C486   1.416       .  A
C485        C490   1.407       .  A
C485        C693   1.463       .  S
C486        C487   1.410       .  A
C486        H491   1.083       .  S
C487        C488   1.395       .  A
C488        C489   1.385       .  A
C488        H492   1.086       .  S
C489        C490   1.387       .  A
C494        C495   1.409       .  A
C494        C499   1.405       .  A
C494        C506   1.494       .  S
C495        C496   1.407       .  A
C495        H500   1.084       .  S
C496        C497   1.417       .  A
C497        C498   1.418       .  A
C497        H501   1.083       .  S
C498        C499   1.406       .  A
C499        H502   1.084       .  S
O503       Ni509   1.893       .  S
O503        C524   1.269       .  A
O504       Ni527   1.891       .  S
O504        C513   1.259       .  A
O505      Ni1935   1.889   1_455  S
O505      Ni1929   1.907   1_455  S
O505        H528   0.966       .  S
C506        O523   1.274       .  A
C506        O515   1.281       .  A
O507       Ni526   1.922       .  S
O507        C513   1.277       .  A
O508       Ni526   1.923       .  S
O508       C1214   1.269       .  A
Ni509      O1922   1.913   1_455  S
C510       O1916   1.269   1_455  A
C510        O520   1.276       .  A
O511      Ni1935   1.918   1_455  S
O511        C517   1.274       .  A
O512        C517   1.274       .  A
O514      Ni1213   1.913       .  S
O514        C516   1.267       .  A
O515       Ni526   1.943       .  S
C517        C661   1.463   1_554  S
H518        O519   0.966       .  S
O519       Ni527   1.929       .  S
O519       Ni521   1.903       .  S
O519       Ni526   1.908       .  S
O520      Ni1929   1.943   1_455  S
Ni521      O1224   1.943       .  S
Ni521      O1229   1.903       .  S
Ni521       O523   1.915       .  S
Ni521      O1209   1.907       .  S
O522       Ni527   1.960       .  S
O525      Ni1929   1.903   1_455  S
Ni527      O1215   1.918       .  S
Ni527      O1209   1.889       .  S
C529        C530   1.416       .  A
C529        C534   1.407       .  A
C529        C550   1.463       .  S
C530        C531   1.410       .  A
C530        H535   1.083       .  S
C531        C532   1.395       .  A
C531        C612   1.475       .  S
C532        C533   1.386       .  A
C532        H536   1.086       .  S
C533        C534   1.387       .  A
C533        C700   1.461       .  S
C534        H537   1.085       .  S
C538        C561   1.494       .  S
C539        C540   1.407       .  A
C540        C541   1.417       .  A
C540        C692   1.492       .  S
C541        C542   1.418       .  A
C541        H545   1.083       .  S
C542        C543   1.407       .  A
C542        C604   1.488       .  S
O547       Ni553   1.922       .  S
O547        C568   1.277       .  A
O548      Ni1979   1.903   1_455  S
O548        C557   1.263       .  A
O549       Ni553   1.908       .  S
O549       Ni571   1.902       .  S
O549       Ni565   1.929       .  S
O549        H572   0.966       .  S
C550        O567   1.274       .  A
C550        O559   1.275       .  A
O551       Ni570   1.893       .  S
O551        C557   1.269       .  A
O552      Ni1274   1.913       .  S
O552        C554   1.267       .  A
Ni553       O556   1.943       .  S
Ni553       O558   1.923       .  S
C554        O564   1.278       .  A
O555       Ni571   1.915       .  S
O555        C561   1.274       .  A
O556        C561   1.281       .  A
O558       C1264   1.269       .  A
O559       Ni570   1.905       .  S
C560        C577   1.488       .  S
C560       O1966   1.269   1_455  A
C560        O566   1.276       .  A
H562        O563   0.966       .  S
O563      Ni1979   1.907   1_455  S
O563      Ni1973   1.889   1_455  S
O563       Ni570   1.889       .  S
O564       Ni565   1.960       .  S
Ni565       O569   1.891       .  S
Ni565      O1271   1.919       .  S
Ni565      O1267   1.889       .  S
O566      Ni1979   1.944   1_455  S
O567      Ni1973   1.919   1_455  S
C568        C584   1.475       .  S
C568        O569   1.260       .  A
Ni570      O1960   1.913   1_455  S
Ni571      O1252   1.903       .  S
Ni571      O1270   1.944       .  S
Ni571      O1267   1.907       .  S
C573        C574   1.409       .  A
C573        C578   1.405       .  A
C574        C575   1.407       .  A
C574        H579   1.084       .  S
C575        C576   1.417       .  A
C575        C648   1.492       .  S
C576        C577   1.418       .  A
C576        H580   1.083       .  S
C577        C578   1.407       .  A
C578        H581   1.084       .  S
C582        C583   1.416       .  A
C582        C587   1.407       .  A
C582        C594   1.463       .  S
C583        C584   1.410       .  A
C583        H588   1.083       .  S
C584        C585   1.395       .  A
C585        C586   1.386       .  A
C585        H589   1.086       .  S
C586        C587   1.387       .  A
C586        C656   1.461       .  S
C587        H590   1.085       .  S
O591       Ni597   1.922       .  S
O591        C612   1.277       .  A
O592       Ni615   1.903       .  S
O592        C601   1.263       .  A
O593       Ni597   1.908       .  S
O593       Ni615   1.902       .  S
O593       Ni609   1.929       .  S
O593        H616   0.966       .  S
C594        O611   1.274       .  A
C594        O603   1.275       .  A
O595       Ni614   1.893       .  S
O595        C601   1.269       .  A
O596       Ni614   1.913       .  S
O596        C598   1.267       .  A
Ni597       O600   1.943       .  S
Ni597       O602   1.923       .  S
C598        C621   1.492       .  S
C598        O608   1.278       .  A
O599       Ni615   1.915       .  S
O599        C605   1.274       .  A
O600        C605   1.281       .  A
C601        C630   1.460       .  S
O602        C604   1.270       .  A
O603       Ni614   1.905       .  S
C604        O610   1.276       .  A
H606        O607   0.966       .  S
O607       Ni615   1.907       .  S
O607       Ni609   1.889       .  S
O607       Ni614   1.889       .  S
O608       Ni609   1.960       .  S
Ni609       O613   1.891       .  S
Ni609       O611   1.919       .  S
O610       Ni615   1.944       .  S
C612        O613   1.260       .  A
C617        C618   1.405       .  A
C617        C622   1.409       .  A
C617        C638   1.494       .  S
C618        C619   1.406       .  A
C618        H623   1.084       .  S
C619        C620   1.418       .  A
C619        C686   1.488       .  S
C620        C621   1.417       .  A
C620        H624   1.083       .  S
C621        C622   1.407       .  A
C622        H625   1.084       .  S
C626        C649   1.463       .  S
C627        C628   1.410       .  A
C628        C629   1.395       .  A
C628        C689   1.475       .  S
C629        C630   1.385       .  A
C629        H633   1.086       .  S
C630        C631   1.387       .  A
C631        H634   1.085       .  S
O635       Ni641   1.893       .  S
O635        C656   1.269       .  A
O636       Ni659   1.891       .  S
O636        C645   1.259       .  A
O637       Ni641   1.890       .  S
O637       Ni659   1.889       .  S
O637       Ni653   1.907       .  S
O637        H660   0.966       .  S
C638        O655   1.274       .  A
C638        O647   1.281       .  A
O639       Ni658   1.922       .  S
O639        C645   1.277       .  A
O640       Ni658   1.923       .  S
O640        C642   1.269       .  A
Ni641       O644   1.905       .  S
Ni641       O646   1.913       .  S
C642        C674   1.488       .  S
C642        O652   1.276       .  A
O643       Ni659   1.918       .  S
O643        C649   1.274       .  A
O644        C649   1.274       .  A
C645        C663   1.475       .  S
O646        C648   1.267       .  A
O647       Ni658   1.943       .  S
C648        O654   1.278       .  A
H650        O651   0.966       .  S
O651       Ni659   1.929       .  S
O651       Ni653   1.903       .  S
O651       Ni658   1.908       .  S
O652       Ni653   1.943       .  S
Ni653       O657   1.903       .  S
Ni653       O655   1.915       .  S
O654       Ni659   1.960       .  S
C656        O657   1.263       .  A
C661        C662   1.416       .  A
C661        C666   1.407       .  A
C662        C663   1.410       .  A
C662        H667   1.083       .  S
C663        C664   1.395       .  A
C664        C665   1.385       .  A
C664        H668   1.086       .  S
C665        C666   1.387       .  A
C670        C671   1.409       .  A
C670        C675   1.405       .  A
C670        C682   1.494       .  S
C671        C672   1.407       .  A
C671        H676   1.084       .  S
C672        C673   1.417       .  A
C673        C674   1.418       .  A
C673        H677   1.083       .  S
C674        C675   1.406       .  A
C675        H678   1.084       .  S
O679       Ni685   1.893       .  S
O679        C700   1.269       .  A
O680       Ni703   1.891       .  S
O680        C689   1.259       .  A
O681      Ni2111   1.889   1_455  S
O681      Ni2105   1.907   1_455  S
O681        H704   0.966       .  S
C682        O699   1.274       .  A
C682        O691   1.281       .  A
O683       Ni702   1.922       .  S
O683        C689   1.277       .  A
O684       Ni702   1.923       .  S
O684       C1390   1.269       .  A
Ni685      O2098   1.913   1_455  S
C686       O2092   1.269   1_455  A
C686        O696   1.276       .  A
O687      Ni2111   1.918   1_455  S
O687        C693   1.274       .  A
O688        C693   1.274       .  A
O690      Ni1389   1.913       .  S
O690        C692   1.267       .  A
O691       Ni702   1.943       .  S
H694        O695   0.966       .  S
O695       Ni703   1.929       .  S
O695       Ni697   1.903       .  S
O695       Ni702   1.908       .  S
O696      Ni2105   1.943   1_455  S
Ni697      O1400   1.943       .  S
Ni697      O1405   1.903       .  S
Ni697       O699   1.915       .  S
Ni697      O1385   1.907       .  S
O698       Ni703   1.960       .  S
O701      Ni2105   1.903   1_455  S
Ni703      O1391   1.918       .  S
Ni703      O1385   1.889       .  S
C705        C706   1.416       .  A
C705        C710   1.407       .  A
C705        C726   1.463       .  S
C706        C707   1.410       .  A
C706        H711   1.083       .  S
C707        C708   1.395       .  A
C707        C788   1.475       .  S
C708        C709   1.386       .  A
C708        H712   1.086       .  S
C709        C710   1.387       .  A
C709        C876   1.461       .  S
C710        H713   1.085       .  S
C714        C891   1.409       .  A
C714        C895   1.405       .  A
C714        C737   1.494       .  S
C715        C890   1.409   1_554  A
C715        C716   1.407       .  A
C715        H896   1.084       .  S
C716        C717   1.417       .  A
C716        C868   1.492       .  S
C717        C718   1.418       .  A
C717        H721   1.083       .  S
C718        C719   1.407       .  A
C718        C780   1.488       .  S
C719        C890   1.405   1_554  A
C719        H898   1.084   1_554  S
H720        C891   1.084       .  S
H722        C895   1.084       .  S
O723       Ni729   1.922       .  S
O723        C744   1.277       .  A
O724        C733   1.263       .  A
O725       Ni729   1.908       .  S
O725       Ni747   1.902       .  S
O725       Ni741   1.929       .  S
O725        H748   0.966       .  S
C726        O743   1.274       .  A
C726        O735   1.275       .  A
O727       Ni746   1.893       .  S
O727        C733   1.269       .  A
O728      Ni1450   1.913       .  S
O728        C730   1.267       .  A
Ni729       O732   1.943       .  S
Ni729       O734   1.923       .  S
C730       C1200   1.492       .  S
C730        O740   1.278       .  A
O731       Ni747   1.915       .  S
O731        C737   1.274       .  A
O732        C737   1.281       .  A
C733       C1193   1.460       .  S
O734       C1440   1.269       .  A
O735       Ni746   1.905       .  S
C736        C753   1.488       .  S
C736        O742   1.276       .  A
H738        O739   0.966       .  S
O739       Ni746   1.889       .  S
O740       Ni741   1.960       .  S
Ni741       O745   1.891       .  S
Ni741      O1447   1.919       .  S
Ni741      O1443   1.889       .  S
C744        C760   1.475       .  S
C744        O745   1.260       .  A
Ni747      O1428   1.903       .  S
Ni747      O1446   1.944       .  S
Ni747      O1443   1.907       .  S
C749        C750   1.409       .  A
C749        C754   1.405       .  A
C749        C957   1.494       .  S
C750        C751   1.407       .  A
C750        H755   1.084       .  S
C751        C752   1.417       .  A
C751        C824   1.492       .  S
C752        C753   1.418       .  A
C752        H756   1.083       .  S
C753        C754   1.407       .  A
C754        H757   1.084       .  S
C758        C759   1.416       .  A
C758        C763   1.407       .  A
C758        C770   1.463       .  S
C759        C760   1.410       .  A
C759        H764   1.083       .  S
C760        C761   1.395       .  A
C761        C762   1.386       .  A
C761        H765   1.086       .  S
C762        C763   1.387       .  A
C762        C832   1.461       .  S
C763        H766   1.085       .  S
O767       Ni773   1.922       .  S
O767        C788   1.277       .  A
O768       Ni791   1.903       .  S
O768        C777   1.263       .  A
O769       Ni773   1.908       .  S
O769       Ni791   1.902       .  S
O769       Ni785   1.929       .  S
O769        H792   0.966       .  S
C770        O787   1.274       .  A
C770        O779   1.275       .  A
O771       Ni790   1.893       .  S
O771        C777   1.269       .  A
O772       Ni790   1.913       .  S
O772        C774   1.267       .  A
Ni773       O776   1.943       .  S
Ni773       O778   1.923       .  S
C774        C797   1.492       .  S
C774        O784   1.278       .  A
O775       Ni791   1.915       .  S
O775        C781   1.274       .  A
O776        C781   1.281       .  A
C777        C806   1.460       .  S
O778        C780   1.270       .  A
O779       Ni790   1.905       .  S
C780        O786   1.276       .  A
C781        C925   1.494   1_554  S
H782        O783   0.966       .  S
O783       Ni791   1.907       .  S
O783       Ni785   1.889       .  S
O783       Ni790   1.889       .  S
O784       Ni785   1.960       .  S
Ni785       O789   1.891       .  S
Ni785       O787   1.919       .  S
O786       Ni791   1.944       .  S
C788        O789   1.260       .  A
C793        C794   1.405       .  A
C793        C798   1.409       .  A
C793        C814   1.494       .  S
C794        C795   1.406       .  A
C794        H799   1.084       .  S
C795        C796   1.418       .  A
C795        C862   1.488       .  S
C796        C797   1.417       .  A
C796        H800   1.083       .  S
C797        C798   1.407       .  A
C798        H801   1.084       .  S
C802        C979   1.416       .  A
C802        C983   1.407       .  A
C802        C825   1.463       .  S
C803        C978   1.416   1_554  A
C803        C804   1.410       .  A
C803        H984   1.083   1_554  S
C804        C805   1.395       .  A
C804        C865   1.475       .  S
C805        C806   1.385       .  A
C805        H809   1.086       .  S
C806        C807   1.387       .  A
C807        C978   1.407   1_554  A
C807        H810   1.085   1_554  S
H808        C979   1.083       .  S
O811       Ni817   1.893       .  S
O811        C832   1.269       .  A
O812       Ni835   1.891       .  S
O812        C821   1.259       .  A
O813       Ni817   1.890       .  S
O813       Ni835   1.889       .  S
O813       Ni829   1.907       .  S
O813        H836   0.966       .  S
C814        O831   1.274       .  A
C814        O823   1.281       .  A
O815       Ni834   1.922       .  S
O815        C821   1.277       .  A
O816       Ni834   1.923       .  S
O816        C818   1.269       .  A
Ni817       O820   1.905       .  S
Ni817       O822   1.913       .  S
C818        C850   1.488       .  S
C818        O828   1.276       .  A
O819       Ni835   1.918       .  S
O819        C825   1.274       .  A
O820        C825   1.274       .  A
C821        C839   1.475       .  S
O822        C824   1.267       .  A
O823       Ni834   1.943       .  S
C824        O830   1.278       .  A
H826        O827   0.966       .  S
O827       Ni835   1.929       .  S
O827       Ni829   1.903       .  S
O827       Ni834   1.908       .  S
O828       Ni829   1.943       .  S
Ni829       O833   1.903       .  S
Ni829       O831   1.915       .  S
O830       Ni835   1.960       .  S
C832        O833   1.263       .  A
C837        C838   1.416       .  A
C837        C842   1.407       .  A
C837       C1045   1.463       .  S
C838        C839   1.410       .  A
C838        H843   1.083       .  S
C839        C840   1.395       .  A
C840        C841   1.385       .  A
C840        H844   1.086       .  S
C841        C842   1.387       .  A
C841       C1085   1.460   1_545  S
C842       H1197   1.085   1_545  S
H845       C1194   1.085       .  S
C846        C847   1.409       .  A
C846        C851   1.405       .  A
C846        C858   1.494       .  S
C847        C848   1.407       .  A
C847        H852   1.084   1_545  S
C848        C849   1.417       .  A
C848       C1082   1.492   1_545  S
C849        C850   1.418       .  A
C849        H853   1.083       .  S
C850        C851   1.406       .  A
C851        H854   1.084       .  S
O855       Ni861   1.893       .  S
O855        C876   1.269       .  A
O856       Ni879   1.891       .  S
O856        C865   1.259       .  A
O857      Ni1213   1.890   1_545  S
O857        H880   0.966       .  S
C858        O875   1.274       .  A
C858        O867   1.281       .  A
O859       Ni878   1.922       .  S
O859        C865   1.277       .  A
O860       Ni878   1.923       .  S
O860       C1566   1.269       .  A
Ni861      O1216   1.905       .  S
Ni861      O1209   1.890       .  S
C862        O872   1.276       .  A
O863        C869   1.274       .  A
O864      Ni1213   1.905   1_545  S
O864        C869   1.274       .  A
O866      Ni1565   1.913       .  S
O866        C868   1.267       .  A
O867       Ni878   1.943       .  S
C868       O1226   1.278       .  A
C869       C1013   1.463   1_554  S
H870        O871   0.966       .  S
O871       Ni879   1.929       .  S
O871       Ni873   1.903       .  S
O871       Ni878   1.908       .  S
Ni873      O1576   1.943       .  S
Ni873      O1581   1.903       .  S
Ni873       O875   1.915       .  S
Ni873      O1561   1.907       .  S
O874       Ni879   1.960       .  S
O874       C1220   1.278   1_545  A
C876       O1229   1.263       .  A
O877       C1228   1.263   1_545  A
Ni879      O1567   1.918       .  S
Ni879      O1561   1.889       .  S
C881        C882   1.416       .  A
C881        C886   1.407       .  A
C881        C902   1.463       .  S
C882        C883   1.410       .  A
C882        H887   1.083       .  S
C883        C884   1.395       .  A
C883        C964   1.475       .  S
C884        C885   1.386       .  A
C884        H888   1.086       .  S
C885        C886   1.387       .  A
C885       C1052   1.461       .  S
C886        H889   1.085       .  S
C890        C913   1.494       .  S
C891        C892   1.407       .  A
C892        C893   1.417       .  A
C892       C1044   1.492       .  S
C893        C894   1.418       .  A
C893        H897   1.083       .  S
C894        C895   1.407       .  A
C894        C956   1.488       .  S
O899       Ni905   1.922       .  S
O899        C920   1.277       .  A
O900        C909   1.263       .  A
O901       Ni905   1.908       .  S
O901       Ni923   1.902       .  S
O901       Ni917   1.929       .  S
O901        H924   0.966       .  S
C902        O919   1.274       .  A
C902        O911   1.275       .  A
O903       Ni922   1.893       .  S
O903        C909   1.269       .  A
O904      Ni1626   1.913       .  S
O904        C906   1.267       .  A
Ni905       O908   1.943       .  S
Ni905       O910   1.923       .  S
C906       C1376   1.492       .  S
C906        O916   1.278       .  A
O907       Ni923   1.915       .  S
O907        C913   1.274       .  A
O908        C913   1.281       .  A
C909       C1369   1.460       .  S
O910       C1616   1.269       .  A
O911       Ni922   1.905       .  S
C912        C929   1.488       .  S
C912        O918   1.276       .  A
H914        O915   0.966       .  S
O915       Ni922   1.889       .  S
O916       Ni917   1.960       .  S
Ni917       O921   1.891       .  S
Ni917      O1623   1.919       .  S
Ni917      O1619   1.889       .  S
C920        C936   1.475       .  S
C920        O921   1.260       .  A
Ni923      O1604   1.903       .  S
Ni923      O1622   1.944       .  S
Ni923      O1619   1.907       .  S
C925        C926   1.409       .  A
C925        C930   1.405       .  A
C926        C927   1.407       .  A
C926        H931   1.084       .  S
C927        C928   1.417       .  A
C927       C1000   1.492       .  S
C928        C929   1.418       .  A
C928        H932   1.083       .  S
C929        C930   1.407       .  A
C930        H933   1.084       .  S
C934        C935   1.416       .  A
C934        C939   1.407       .  A
C934        C946   1.463       .  S
C935        C936   1.410       .  A
C935        H940   1.083       .  S
C936        C937   1.395       .  A
C937        C938   1.386       .  A
C937        H941   1.086       .  S
C938        C939   1.387       .  A
C938       C1008   1.461       .  S
C939        H942   1.085       .  S
O943       Ni949   1.922       .  S
O943        C964   1.277       .  A
O944       Ni967   1.903       .  S
O944        C953   1.263       .  A
O945       Ni949   1.908       .  S
O945       Ni967   1.902       .  S
O945       Ni961   1.929       .  S
O945        H968   0.966       .  S
C946        O963   1.274       .  A
C946        O955   1.275       .  A
O947       Ni966   1.893       .  S
O947        C953   1.269       .  A
O948       Ni966   1.913       .  S
O948        C950   1.267       .  A
Ni949       O952   1.943       .  S
Ni949       O954   1.923       .  S
C950        C973   1.492       .  S
C950        O960   1.278       .  A
O951       Ni967   1.915       .  S
O951        C957   1.274       .  A
O952        C957   1.281       .  A
C953        C982   1.460       .  S
O954        C956   1.270       .  A
O955       Ni966   1.905       .  S
C956        O962   1.276       .  A
H958        O959   0.966       .  S
O959       Ni967   1.907       .  S
O959       Ni961   1.889       .  S
O959       Ni966   1.889       .  S
O960       Ni961   1.960       .  S
Ni961       O965   1.891       .  S
Ni961       O963   1.919       .  S
O962       Ni967   1.944       .  S
C964        O965   1.260       .  A
C969        C970   1.405       .  A
C969        C974   1.409       .  A
C969        C990   1.494       .  S
C970        C971   1.406       .  A
C970        H975   1.084       .  S
C971        C972   1.418       .  A
C971       C1038   1.488       .  S
C972        C973   1.417       .  A
C972        H976   1.083       .  S
C973        C974   1.407       .  A
C974        H977   1.084       .  S
C978       C1001   1.463       .  S
C979        C980   1.410       .  A
C980        C981   1.395       .  A
C980       C1041   1.475       .  S
C981        C982   1.385       .  A
C981        H985   1.086       .  S
C982        C983   1.387       .  A
C983        H986   1.085       .  S
O987       Ni993   1.893       .  S
O987       C1008   1.269       .  A
O988      Ni1011   1.891       .  S
O988        C997   1.259       .  A
O989       Ni993   1.890       .  S
O989      Ni1011   1.889       .  S
O989      Ni1005   1.907       .  S
O989       H1012   0.966       .  S
C990       O1007   1.274       .  A
C990        O999   1.281       .  A
O991      Ni1010   1.922       .  S
O991        C997   1.277       .  A
O992      Ni1010   1.923       .  S
O992        C994   1.269       .  A
Ni993       O996   1.905       .  S
Ni993       O998   1.913       .  S
C994       C1026   1.488       .  S
C994       O1004   1.276       .  A
O995      Ni1011   1.918       .  S
O995       C1001   1.274       .  A
O996       C1001   1.274       .  A
C997       C1015   1.475       .  S
O998       C1000   1.267       .  A
O999      Ni1010   1.943       .  S
C1000      O1006   1.278       .  A
H1002      O1003   0.966       .  S
O1003     Ni1011   1.929       .  S
O1003     Ni1005   1.903       .  S
O1003     Ni1010   1.908       .  S
O1004     Ni1005   1.943       .  S
Ni1005     O1009   1.903       .  S
Ni1005     O1007   1.915       .  S
O1006     Ni1011   1.960       .  S
C1008      O1009   1.263       .  A
C1013      C1014   1.416       .  A
C1013      C1018   1.407       .  A
C1014      C1015   1.410       .  A
C1014      H1019   1.083       .  S
C1015      C1016   1.395       .  A
C1016      C1017   1.385       .  A
C1016      H1020   1.086       .  S
C1017      C1018   1.387       .  A
C1017      C1261   1.460   1_545  S
C1018      H1373   1.085   1_545  S
H1021      C1370   1.085       .  S
C1022      C1023   1.409       .  A
C1022      C1027   1.405       .  A
C1022      C1034   1.494       .  S
C1023      C1024   1.407       .  A
C1023      H1028   1.084   1_545  S
C1024      C1025   1.417       .  A
C1024      C1258   1.492   1_545  S
C1025      C1026   1.418       .  A
C1025      H1029   1.083       .  S
C1026      C1027   1.406       .  A
C1027      H1030   1.084       .  S
O1031     Ni1037   1.893       .  S
O1031      C1052   1.269       .  A
O1032     Ni1055   1.891       .  S
O1032      C1041   1.259       .  A
O1033     Ni1389   1.890   1_545  S
O1033      H1056   0.966       .  S
C1034      O1051   1.274       .  A
C1034      O1043   1.281       .  A
O1035     Ni1054   1.922       .  S
O1035      C1041   1.277       .  A
O1036     Ni1054   1.923       .  S
O1036      C1742   1.269       .  A
Ni1037     O1392   1.905       .  S
Ni1037     O1385   1.890       .  S
C1038      O1048   1.276       .  A
O1039      C1045   1.274       .  A
O1040     Ni1389   1.905   1_545  S
O1040      C1045   1.274       .  A
O1042     Ni1741   1.913       .  S
O1042      C1044   1.267       .  A
O1043     Ni1054   1.943       .  S
C1044      O1402   1.278       .  A
H1046      O1047   0.966       .  S
O1047     Ni1055   1.929       .  S
O1047     Ni1049   1.903       .  S
O1047     Ni1054   1.908       .  S
Ni1049     O1752   1.943       .  S
Ni1049     O1757   1.903       .  S
Ni1049     O1051   1.915       .  S
Ni1049     O1737   1.907       .  S
O1050     Ni1055   1.960       .  S
O1050      C1396   1.278   1_545  A
C1052      O1405   1.263       .  A
O1053      C1404   1.263   1_545  A
Ni1055     O1743   1.918       .  S
Ni1055     O1737   1.889       .  S
C1057      C1058   1.416       .  A
C1057      C1062   1.407       .  A
C1057      C1078   1.463       .  S
C1058      C1059   1.410       .  A
C1058      H1063   1.083       .  S
C1059      C1060   1.395       .  A
C1059      C1140   1.475       .  S
C1060      C1061   1.386       .  A
C1060      H1064   1.086       .  S
C1061      C1062   1.387       .  A
C1061      C1228   1.461       .  S
C1062      H1065   1.085       .  S
C1066      C1243   1.409       .  A
C1066      C1247   1.405       .  A
C1066      C1089   1.494       .  S
C1067      C1242   1.409   1_554  A
C1067      C1068   1.407       .  A
C1067      H1248   1.084       .  S
C1068      C1069   1.417       .  A
C1068      C1220   1.492       .  S
C1069      C1070   1.418       .  A
C1069      H1073   1.083       .  S
C1070      C1071   1.407       .  A
C1070      C1132   1.488       .  S
C1071      C1242   1.405   1_554  A
C1071      H1250   1.084   1_554  S
H1072      C1243   1.084       .  S
H1074      C1247   1.084       .  S
O1075     Ni1081   1.922       .  S
O1075      C1096   1.277       .  A
O1076      C1085   1.263       .  A
O1077     Ni1081   1.908       .  S
O1077     Ni1099   1.902       .  S
O1077     Ni1093   1.929       .  S
O1077      H1100   0.966       .  S
C1078      O1095   1.274       .  A
C1078      O1087   1.275       .  A
O1079     Ni1098   1.893       .  S
O1079      C1085   1.269       .  A
O1080     Ni1802   1.913       .  S
O1080      C1082   1.267       .  A
Ni1081     O1084   1.943       .  S
Ni1081     O1086   1.923       .  S
C1082      O1092   1.278       .  A
O1083     Ni1099   1.915       .  S
O1083      C1089   1.274       .  A
O1084      C1089   1.281       .  A
O1086      C1792   1.269       .  A
O1087     Ni1098   1.905       .  S
C1088      C1105   1.488       .  S
C1088      O1094   1.276       .  A
H1090      O1091   0.966       .  S
O1091     Ni1098   1.889       .  S
O1092     Ni1093   1.960       .  S
Ni1093     O1097   1.891       .  S
Ni1093     O1799   1.919       .  S
Ni1093     O1795   1.889       .  S
C1096      C1112   1.475       .  S
C1096      O1097   1.260       .  A
Ni1099     O1780   1.903       .  S
Ni1099     O1798   1.944       .  S
Ni1099     O1795   1.907       .  S
C1101      C1102   1.409       .  A
C1101      C1106   1.405       .  A
C1101      C1309   1.494       .  S
C1102      C1103   1.407       .  A
C1102      H1107   1.084       .  S
C1103      C1104   1.417       .  A
C1103      C1176   1.492       .  S
C1104      C1105   1.418       .  A
C1104      H1108   1.083       .  S
C1105      C1106   1.407       .  A
C1106      H1109   1.084       .  S
C1110      C1111   1.416       .  A
C1110      C1115   1.407       .  A
C1110      C1122   1.463       .  S
C1111      C1112   1.410       .  A
C1111      H1116   1.083       .  S
C1112      C1113   1.395       .  A
C1113      C1114   1.386       .  A
C1113      H1117   1.086       .  S
C1114      C1115   1.387       .  A
C1114      C1184   1.461       .  S
C1115      H1118   1.085       .  S
O1119     Ni1125   1.922       .  S
O1119      C1140   1.277       .  A
O1120     Ni1143   1.903       .  S
O1120      C1129   1.263       .  A
O1121     Ni1125   1.908       .  S
O1121     Ni1143   1.902       .  S
O1121     Ni1137   1.929       .  S
O1121      H1144   0.966       .  S
C1122      O1139   1.274       .  A
C1122      O1131   1.275       .  A
O1123     Ni1142   1.893       .  S
O1123      C1129   1.269       .  A
O1124     Ni1142   1.913       .  S
O1124      C1126   1.267       .  A
Ni1125     O1128   1.943       .  S
Ni1125     O1130   1.923       .  S
C1126      C1149   1.492       .  S
C1126      O1136   1.278       .  A
O1127     Ni1143   1.915       .  S
O1127      C1133   1.274       .  A
O1128      C1133   1.281       .  A
C1129      C1158   1.460       .  S
O1130      C1132   1.270       .  A
O1131     Ni1142   1.905       .  S
C1132      O1138   1.276       .  A
C1133      C1277   1.494   1_554  S
H1134      O1135   0.966       .  S
O1135     Ni1143   1.907       .  S
O1135     Ni1137   1.889       .  S
O1135     Ni1142   1.889       .  S
O1136     Ni1137   1.960       .  S
Ni1137     O1141   1.891       .  S
Ni1137     O1139   1.919       .  S
O1138     Ni1143   1.944       .  S
C1140      O1141   1.260       .  A
C1145      C1146   1.405       .  A
C1145      C1150   1.409       .  A
C1145      C1166   1.494       .  S
C1146      C1147   1.406       .  A
C1146      H1151   1.084       .  S
C1147      C1148   1.418       .  A
C1147      C1214   1.488       .  S
C1148      C1149   1.417       .  A
C1148      H1152   1.083       .  S
C1149      C1150   1.407       .  A
C1150      H1153   1.084       .  S
C1154      C1331   1.416       .  A
C1154      C1335   1.407       .  A
C1154      C1177   1.463       .  S
C1155      C1330   1.416   1_554  A
C1155      C1156   1.410       .  A
C1155      H1336   1.083   1_554  S
C1156      C1157   1.395       .  A
C1156      C1217   1.475       .  S
C1157      C1158   1.385       .  A
C1157      H1161   1.086       .  S
C1158      C1159   1.387       .  A
C1159      C1330   1.407   1_554  A
C1159      H1162   1.085   1_554  S
H1160      C1331   1.083       .  S
O1163     Ni1169   1.893       .  S
O1163      C1184   1.269       .  A
O1164     Ni1187   1.891       .  S
O1164      C1173   1.259       .  A
O1165     Ni1169   1.890       .  S
O1165     Ni1187   1.889       .  S
O1165     Ni1181   1.907       .  S
O1165      H1188   0.966       .  S
C1166      O1183   1.274       .  A
C1166      O1175   1.281       .  A
O1167     Ni1186   1.922       .  S
O1167      C1173   1.277       .  A
O1168     Ni1186   1.923       .  S
O1168      C1170   1.269       .  A
Ni1169     O1172   1.905       .  S
Ni1169     O1174   1.913       .  S
C1170      C1202   1.488       .  S
C1170      O1180   1.276       .  A
O1171     Ni1187   1.918       .  S
O1171      C1177   1.274       .  A
O1172      C1177   1.274       .  A
C1173      C1191   1.475       .  S
O1174      C1176   1.267       .  A
O1175     Ni1186   1.943       .  S
C1176      O1182   1.278       .  A
H1178      O1179   0.966       .  S
O1179     Ni1187   1.929       .  S
O1179     Ni1181   1.903       .  S
O1179     Ni1186   1.908       .  S
O1180     Ni1181   1.943       .  S
Ni1181     O1185   1.903       .  S
Ni1181     O1183   1.915       .  S
O1182     Ni1187   1.960       .  S
C1184      O1185   1.263       .  A
C1189      C1190   1.416       .  A
C1189      C1194   1.407       .  A
C1189      C1397   1.463       .  S
C1190      C1191   1.410       .  A
C1190      H1195   1.083       .  S
C1191      C1192   1.395       .  A
C1192      C1193   1.385       .  A
C1192      H1196   1.086       .  S
C1193      C1194   1.387       .  A
C1198      C1199   1.409       .  A
C1198      C1203   1.405       .  A
C1198      C1210   1.494       .  S
C1199      C1200   1.407       .  A
C1199      H1204   1.084       .  S
C1200      C1201   1.417       .  A
C1201      C1202   1.418       .  A
C1201      H1205   1.083       .  S
C1202      C1203   1.406       .  A
C1203      H1206   1.084       .  S
O1207     Ni1213   1.893       .  S
O1207      C1228   1.269       .  A
O1208     Ni1231   1.891       .  S
O1208      C1217   1.259       .  A
O1209      H1232   0.966       .  S
C1210      O1227   1.274       .  A
C1210      O1219   1.281       .  A
O1211     Ni1230   1.922       .  S
O1211      C1217   1.277       .  A
O1212     Ni1230   1.923       .  S
O1212      C1918   1.269       .  A
C1214      O1224   1.276       .  A
O1215      C1221   1.274       .  A
O1216      C1221   1.274       .  A
O1218     Ni1917   1.913       .  S
O1218      C1220   1.267       .  A
O1219     Ni1230   1.943       .  S
C1221      C1365   1.463   1_554  S
H1222      O1223   0.966       .  S
O1223     Ni1231   1.929       .  S
O1223     Ni1225   1.903       .  S
O1223     Ni1230   1.908       .  S
Ni1225     O1928   1.943       .  S
Ni1225     O1933   1.903       .  S
Ni1225     O1227   1.915       .  S
Ni1225     O1913   1.907       .  S
O1226     Ni1231   1.960       .  S
Ni1231     O1919   1.918       .  S
Ni1231     O1913   1.889       .  S
C1233      C1234   1.416       .  A
C1233      C1238   1.407       .  A
C1233      C1254   1.463       .  S
C1234      C1235   1.410       .  A
C1234      H1239   1.083       .  S
C1235      C1236   1.395       .  A
C1235      C1316   1.475       .  S
C1236      C1237   1.386       .  A
C1236      H1240   1.086       .  S
C1237      C1238   1.387       .  A
C1237      C1404   1.461       .  S
C1238      H1241   1.085       .  S
C1242      C1265   1.494       .  S
C1243      C1244   1.407       .  A
C1244      C1245   1.417       .  A
C1244      C1396   1.492       .  S
C1245      C1246   1.418       .  A
C1245      H1249   1.083       .  S
C1246      C1247   1.407       .  A
C1246      C1308   1.488       .  S
O1251     Ni1257   1.922       .  S
O1251      C1272   1.277       .  A
O1252      C1261   1.263       .  A
O1253     Ni1257   1.908       .  S
O1253     Ni1275   1.902       .  S
O1253     Ni1269   1.929       .  S
O1253      H1276   0.966       .  S
C1254      O1271   1.274       .  A
C1254      O1263   1.275       .  A
O1255     Ni1274   1.893       .  S
O1255      C1261   1.269       .  A
O1256     Ni1978   1.913       .  S
O1256      C1258   1.267       .  A
Ni1257     O1260   1.943       .  S
Ni1257     O1262   1.923       .  S
C1258      O1268   1.278       .  A
O1259     Ni1275   1.915       .  S
O1259      C1265   1.274       .  A
O1260      C1265   1.281       .  A
O1262      C1968   1.269       .  A
O1263     Ni1274   1.905       .  S
C1264      C1281   1.488       .  S
C1264      O1270   1.276       .  A
H1266      O1267   0.966       .  S
O1267     Ni1274   1.889       .  S
O1268     Ni1269   1.960       .  S
Ni1269     O1273   1.891       .  S
Ni1269     O1975   1.919       .  S
Ni1269     O1971   1.889       .  S
C1272      C1288   1.475       .  S
C1272      O1273   1.260       .  A
Ni1275     O1956   1.903       .  S
Ni1275     O1974   1.944       .  S
Ni1275     O1971   1.907       .  S
C1277      C1278   1.409       .  A
C1277      C1282   1.405       .  A
C1278      C1279   1.407       .  A
C1278      H1283   1.084       .  S
C1279      C1280   1.417       .  A
C1279      C1352   1.492       .  S
C1280      C1281   1.418       .  A
C1280      H1284   1.083       .  S
C1281      C1282   1.407       .  A
C1282      H1285   1.084       .  S
C1286      C1287   1.416       .  A
C1286      C1291   1.407       .  A
C1286      C1298   1.463       .  S
C1287      C1288   1.410       .  A
C1287      H1292   1.083       .  S
C1288      C1289   1.395       .  A
C1289      C1290   1.386       .  A
C1289      H1293   1.086       .  S
C1290      C1291   1.387       .  A
C1290      C1360   1.461       .  S
C1291      H1294   1.085       .  S
O1295     Ni1301   1.922       .  S
O1295      C1316   1.277       .  A
O1296     Ni1319   1.903       .  S
O1296      C1305   1.263       .  A
O1297     Ni1301   1.908       .  S
O1297     Ni1319   1.902       .  S
O1297     Ni1313   1.929       .  S
O1297      H1320   0.966       .  S
C1298      O1315   1.274       .  A
C1298      O1307   1.275       .  A
O1299     Ni1318   1.893       .  S
O1299      C1305   1.269       .  A
O1300     Ni1318   1.913       .  S
O1300      C1302   1.267       .  A
Ni1301     O1304   1.943       .  S
Ni1301     O1306   1.923       .  S
C1302      C1325   1.492       .  S
C1302      O1312   1.278       .  A
O1303     Ni1319   1.915       .  S
O1303      C1309   1.274       .  A
O1304      C1309   1.281       .  A
C1305      C1334   1.460       .  S
O1306      C1308   1.270       .  A
O1307     Ni1318   1.905       .  S
C1308      O1314   1.276       .  A
H1310      O1311   0.966       .  S
O1311     Ni1319   1.907       .  S
O1311     Ni1313   1.889       .  S
O1311     Ni1318   1.889       .  S
O1312     Ni1313   1.960       .  S
Ni1313     O1317   1.891       .  S
Ni1313     O1315   1.919       .  S
O1314     Ni1319   1.944       .  S
C1316      O1317   1.260       .  A
C1321      C1322   1.405       .  A
C1321      C1326   1.409       .  A
C1321      C1342   1.494       .  S
C1322      C1323   1.406       .  A
C1322      H1327   1.084       .  S
C1323      C1324   1.418       .  A
C1323      C1390   1.488       .  S
C1324      C1325   1.417       .  A
C1324      H1328   1.083       .  S
C1325      C1326   1.407       .  A
C1326      H1329   1.084       .  S
C1330      C1353   1.463       .  S
C1331      C1332   1.410       .  A
C1332      C1333   1.395       .  A
C1332      C1393   1.475       .  S
C1333      C1334   1.385       .  A
C1333      H1337   1.086       .  S
C1334      C1335   1.387       .  A
C1335      H1338   1.085       .  S
O1339     Ni1345   1.893       .  S
O1339      C1360   1.269       .  A
O1340     Ni1363   1.891       .  S
O1340      C1349   1.259       .  A
O1341     Ni1345   1.890       .  S
O1341     Ni1363   1.889       .  S
O1341     Ni1357   1.907       .  S
O1341      H1364   0.966       .  S
C1342      O1359   1.274       .  A
C1342      O1351   1.281       .  A
O1343     Ni1362   1.922       .  S
O1343      C1349   1.277       .  A
O1344     Ni1362   1.923       .  S
O1344      C1346   1.269       .  A
Ni1345     O1348   1.905       .  S
Ni1345     O1350   1.913       .  S
C1346      C1378   1.488       .  S
C1346      O1356   1.276       .  A
O1347     Ni1363   1.918       .  S
O1347      C1353   1.274       .  A
O1348      C1353   1.274       .  A
C1349      C1367   1.475       .  S
O1350      C1352   1.267       .  A
O1351     Ni1362   1.943       .  S
C1352      O1358   1.278       .  A
H1354      O1355   0.966       .  S
O1355     Ni1363   1.929       .  S
O1355     Ni1357   1.903       .  S
O1355     Ni1362   1.908       .  S
O1356     Ni1357   1.943       .  S
Ni1357     O1361   1.903       .  S
Ni1357     O1359   1.915       .  S
O1358     Ni1363   1.960       .  S
C1360      O1361   1.263       .  A
C1365      C1366   1.416       .  A
C1365      C1370   1.407       .  A
C1366      C1367   1.410       .  A
C1366      H1371   1.083       .  S
C1367      C1368   1.395       .  A
C1368      C1369   1.385       .  A
C1368      H1372   1.086       .  S
C1369      C1370   1.387       .  A
C1374      C1375   1.409       .  A
C1374      C1379   1.405       .  A
C1374      C1386   1.494       .  S
C1375      C1376   1.407       .  A
C1375      H1380   1.084       .  S
C1376      C1377   1.417       .  A
C1377      C1378   1.418       .  A
C1377      H1381   1.083       .  S
C1378      C1379   1.406       .  A
C1379      H1382   1.084       .  S
O1383     Ni1389   1.893       .  S
O1383      C1404   1.269       .  A
O1384     Ni1407   1.891       .  S
O1384      C1393   1.259       .  A
O1385      H1408   0.966       .  S
C1386      O1403   1.274       .  A
C1386      O1395   1.281       .  A
O1387     Ni1406   1.922       .  S
O1387      C1393   1.277       .  A
O1388     Ni1406   1.923       .  S
O1388      C2094   1.269       .  A
C1390      O1400   1.276       .  A
O1391      C1397   1.274       .  A
O1392      C1397   1.274       .  A
O1394     Ni2093   1.913       .  S
O1394      C1396   1.267       .  A
O1395     Ni1406   1.943       .  S
H1398      O1399   0.966       .  S
O1399     Ni1407   1.929       .  S
O1399     Ni1401   1.903       .  S
O1399     Ni1406   1.908       .  S
Ni1401     O2104   1.943       .  S
Ni1401     O2109   1.903       .  S
Ni1401     O1403   1.915       .  S
Ni1401     O2089   1.907       .  S
O1402     Ni1407   1.960       .  S
Ni1407     O2095   1.918       .  S
Ni1407     O2089   1.889       .  S
C1409      C1410   1.416       .  A
C1409      C1414   1.407       .  A
C1409      C1430   1.463       .  S
C1410      C1411   1.410       .  A
C1410      H1415   1.083       .  S
C1411      C1412   1.395       .  A
C1411      C1492   1.475       .  S
C1412      C1413   1.386       .  A
C1412      H1416   1.086       .  S
C1413      C1414   1.387       .  A
C1413      C1580   1.461       .  S
C1414      H1417   1.085       .  S
C1418      C1595   1.409       .  A
C1418      C1599   1.405       .  A
C1418      C1441   1.494       .  S
C1419      C1594   1.409   1_554  A
C1419      C1420   1.407       .  A
C1419      H1600   1.084       .  S
C1420      C1421   1.417       .  A
C1420      C1572   1.492       .  S
C1421      C1422   1.418       .  A
C1421      H1425   1.083       .  S
C1422      C1423   1.407       .  A
C1422      C1484   1.488       .  S
C1423      C1594   1.405   1_554  A
C1423      H1602   1.084   1_554  S
H1424      C1595   1.084       .  S
H1426      C1599   1.084       .  S
O1427     Ni1433   1.922       .  S
O1427      C1448   1.277       .  A
O1428      C1437   1.263       .  A
O1429     Ni1433   1.908       .  S
O1429     Ni1451   1.902       .  S
O1429     Ni1445   1.929       .  S
O1429      H1452   0.966       .  S
C1430      O1447   1.274       .  A
C1430      O1439   1.275       .  A
O1431     Ni1450   1.893       .  S
O1431      C1437   1.269       .  A
O1432      C1434   1.267       .  A
Ni1433     O1436   1.943       .  S
Ni1433     O1438   1.923       .  S
C1434      C1904   1.492       .  S
C1434      O1444   1.278       .  A
O1435     Ni1451   1.915       .  S
O1435      C1441   1.274       .  A
O1436      C1441   1.281       .  A
C1437      C1897   1.460       .  S
O1439     Ni1450   1.905       .  S
C1440      C1457   1.488       .  S
C1440      O1446   1.276       .  A
H1442      O1443   0.966       .  S
O1443     Ni1450   1.889       .  S
O1444     Ni1445   1.960       .  S
Ni1445     O1449   1.891       .  S
C1448      C1464   1.475       .  S
C1448      O1449   1.260       .  A
C1453      C1454   1.409       .  A
C1453      C1458   1.405       .  A
C1453      C1661   1.494       .  S
C1454      C1455   1.407       .  A
C1454      H1459   1.084       .  S
C1455      C1456   1.417       .  A
C1455      C1528   1.492       .  S
C1456      C1457   1.418       .  A
C1456      H1460   1.083       .  S
C1457      C1458   1.407       .  A
C1458      H1461   1.084       .  S
C1462      C1463   1.416       .  A
C1462      C1467   1.407       .  A
C1462      C1474   1.463       .  S
C1463      C1464   1.410       .  A
C1463      H1468   1.083       .  S
C1464      C1465   1.395       .  A
C1465      C1466   1.386       .  A
C1465      H1469   1.086       .  S
C1466      C1467   1.387       .  A
C1466      C1536   1.461       .  S
C1467      H1470   1.085       .  S
O1471     Ni1477   1.922       .  S
O1471      C1492   1.277       .  A
O1472     Ni1495   1.903       .  S
O1472      C1481   1.263       .  A
O1473     Ni1477   1.908       .  S
O1473     Ni1495   1.902       .  S
O1473     Ni1489   1.929       .  S
O1473      H1496   0.966       .  S
C1474      O1491   1.274       .  A
C1474      O1483   1.275       .  A
O1475     Ni1494   1.893       .  S
O1475      C1481   1.269       .  A
O1476     Ni1494   1.913       .  S
O1476      C1478   1.267       .  A
Ni1477     O1480   1.943       .  S
Ni1477     O1482   1.923       .  S
C1478      C1501   1.492       .  S
C1478      O1488   1.278       .  A
O1479     Ni1495   1.915       .  S
O1479      C1485   1.274       .  A
O1480      C1485   1.281       .  A
C1481      C1510   1.460       .  S
O1482      C1484   1.270       .  A
O1483     Ni1494   1.905       .  S
C1484      O1490   1.276       .  A
C1485      C1629   1.494   1_554  S
H1486      O1487   0.966       .  S
O1487     Ni1495   1.907       .  S
O1487     Ni1489   1.889       .  S
O1487     Ni1494   1.889       .  S
O1488     Ni1489   1.960       .  S
Ni1489     O1493   1.891       .  S
Ni1489     O1491   1.919       .  S
O1490     Ni1495   1.944       .  S
C1492      O1493   1.260       .  A
C1497      C1498   1.405       .  A
C1497      C1502   1.409       .  A
C1497      C1518   1.494       .  S
C1498      C1499   1.406       .  A
C1498      H1503   1.084       .  S
C1499      C1500   1.418       .  A
C1499      C1566   1.488       .  S
C1500      C1501   1.417       .  A
C1500      H1504   1.083       .  S
C1501      C1502   1.407       .  A
C1502      H1505   1.084       .  S
C1506      C1683   1.416       .  A
C1506      C1687   1.407       .  A
C1506      C1529   1.463       .  S
C1507      C1682   1.416   1_554  A
C1507      C1508   1.410       .  A
C1507      H1688   1.083   1_554  S
C1508      C1509   1.395       .  A
C1508      C1569   1.475       .  S
C1509      C1510   1.385       .  A
C1509      H1513   1.086       .  S
C1510      C1511   1.387       .  A
C1511      C1682   1.407   1_554  A
C1511      H1514   1.085   1_554  S
H1512      C1683   1.083       .  S
O1515     Ni1521   1.893       .  S
O1515      C1536   1.269       .  A
O1516     Ni1539   1.891       .  S
O1516      C1525   1.259       .  A
O1517     Ni1521   1.890       .  S
O1517     Ni1539   1.889       .  S
O1517     Ni1533   1.907       .  S
O1517      H1540   0.966       .  S
C1518      O1535   1.274       .  A
C1518      O1527   1.281       .  A
O1519     Ni1538   1.922       .  S
O1519      C1525   1.277       .  A
O1520     Ni1538   1.923       .  S
O1520      C1522   1.269       .  A
Ni1521     O1524   1.905       .  S
Ni1521     O1526   1.913       .  S
C1522      C1554   1.488       .  S
C1522      O1532   1.276       .  A
O1523     Ni1539   1.918       .  S
O1523      C1529   1.274       .  A
O1524      C1529   1.274       .  A
C1525      C1543   1.475       .  S
O1526      C1528   1.267       .  A
O1527     Ni1538   1.943       .  S
C1528      O1534   1.278       .  A
H1530      O1531   0.966       .  S
O1531     Ni1539   1.929       .  S
O1531     Ni1533   1.903       .  S
O1531     Ni1538   1.908       .  S
O1532     Ni1533   1.943       .  S
Ni1533     O1537   1.903       .  S
Ni1533     O1535   1.915       .  S
O1534     Ni1539   1.960       .  S
C1536      O1537   1.263       .  A
C1541      C1542   1.416       .  A
C1541      C1546   1.407       .  A
C1541      C1749   1.463       .  S
C1542      C1543   1.410       .  A
C1542      H1547   1.083       .  S
C1543      C1544   1.395       .  A
C1544      C1545   1.385       .  A
C1544      H1548   1.086       .  S
C1545      C1546   1.387       .  A
C1545      C1789   1.460   1_545  S
C1546      H1901   1.085   1_545  S
H1549      C1898   1.085       .  S
C1550      C1551   1.409       .  A
C1550      C1555   1.405       .  A
C1550      C1562   1.494       .  S
C1551      C1552   1.407       .  A
C1551      H1556   1.084   1_545  S
C1552      C1553   1.417       .  A
C1552      C1786   1.492   1_545  S
C1553      C1554   1.418       .  A
C1553      H1557   1.083       .  S
C1554      C1555   1.406       .  A
C1555      H1558   1.084       .  S
O1559     Ni1565   1.893       .  S
O1559      C1580   1.269       .  A
O1560     Ni1583   1.891       .  S
O1560      C1569   1.259       .  A
O1561     Ni1917   1.890   1_545  S
O1561      H1584   0.966       .  S
C1562      O1579   1.274       .  A
C1562      O1571   1.281       .  A
O1563     Ni1582   1.922       .  S
O1563      C1569   1.277       .  A
O1564     Ni1582   1.923       .  S
Ni1565     O1920   1.905       .  S
Ni1565     O1913   1.890       .  S
C1566      O1576   1.276       .  A
O1567      C1573   1.274       .  A
O1568     Ni1917   1.905   1_545  S
O1568      C1573   1.274       .  A
O1570      C1572   1.267       .  A
O1571     Ni1582   1.943       .  S
C1572      O1930   1.278       .  A
C1573      C1717   1.463   1_554  S
H1574      O1575   0.966       .  S
O1575     Ni1583   1.929       .  S
O1575     Ni1577   1.903       .  S
O1575     Ni1582   1.908       .  S
Ni1577     O1579   1.915       .  S
O1578     Ni1583   1.960       .  S
O1578      C1924   1.278   1_545  A
C1580      O1933   1.263       .  A
O1581      C1932   1.263   1_545  A
C1585      C1586   1.416       .  A
C1585      C1590   1.407       .  A
C1585      C1606   1.463       .  S
C1586      C1587   1.410       .  A
C1586      H1591   1.083       .  S
C1587      C1588   1.395       .  A
C1587      C1668   1.475       .  S
C1588      C1589   1.386       .  A
C1588      H1592   1.086       .  S
C1589      C1590   1.387       .  A
C1589      C1756   1.461       .  S
C1590      H1593   1.085       .  S
C1594      C1617   1.494       .  S
C1595      C1596   1.407       .  A
C1596      C1597   1.417       .  A
C1596      C1748   1.492       .  S
C1597      C1598   1.418       .  A
C1597      H1601   1.083       .  S
C1598      C1599   1.407       .  A
C1598      C1660   1.488       .  S
O1603     Ni1609   1.922       .  S
O1603      C1624   1.277       .  A
O1604      C1613   1.263       .  A
O1605     Ni1609   1.908       .  S
O1605     Ni1627   1.902       .  S
O1605     Ni1621   1.929       .  S
O1605      H1628   0.966       .  S
C1606      O1623   1.274       .  A
C1606      O1615   1.275       .  A
O1607     Ni1626   1.893       .  S
O1607      C1613   1.269       .  A
O1608      C1610   1.267       .  A
Ni1609     O1612   1.943       .  S
Ni1609     O1614   1.923       .  S
C1610      C2080   1.492       .  S
C1610      O1620   1.278       .  A
O1611     Ni1627   1.915       .  S
O1611      C1617   1.274       .  A
O1612      C1617   1.281       .  A
C1613      C2073   1.460       .  S
O1615     Ni1626   1.905       .  S
C1616      C1633   1.488       .  S
C1616      O1622   1.276       .  A
H1618      O1619   0.966       .  S
O1619     Ni1626   1.889       .  S
O1620     Ni1621   1.960       .  S
Ni1621     O1625   1.891       .  S
C1624      C1640   1.475       .  S
C1624      O1625   1.260       .  A
C1629      C1630   1.409       .  A
C1629      C1634   1.405       .  A
C1630      C1631   1.407       .  A
C1630      H1635   1.084       .  S
C1631      C1632   1.417       .  A
C1631      C1704   1.492       .  S
C1632      C1633   1.418       .  A
C1632      H1636   1.083       .  S
C1633      C1634   1.407       .  A
C1634      H1637   1.084       .  S
C1638      C1639   1.416       .  A
C1638      C1643   1.407       .  A
C1638      C1650   1.463       .  S
C1639      C1640   1.410       .  A
C1639      H1644   1.083       .  S
C1640      C1641   1.395       .  A
C1641      C1642   1.386       .  A
C1641      H1645   1.086       .  S
C1642      C1643   1.387       .  A
C1642      C1712   1.461       .  S
C1643      H1646   1.085       .  S
O1647     Ni1653   1.922       .  S
O1647      C1668   1.277       .  A
O1648     Ni1671   1.903       .  S
O1648      C1657   1.263       .  A
O1649     Ni1653   1.908       .  S
O1649     Ni1671   1.902       .  S
O1649     Ni1665   1.929       .  S
O1649      H1672   0.966       .  S
C1650      O1667   1.274       .  A
C1650      O1659   1.275       .  A
O1651     Ni1670   1.893       .  S
O1651      C1657   1.269       .  A
O1652     Ni1670   1.913       .  S
O1652      C1654   1.267       .  A
Ni1653     O1656   1.943       .  S
Ni1653     O1658   1.923       .  S
C1654      C1677   1.492       .  S
C1654      O1664   1.278       .  A
O1655     Ni1671   1.915       .  S
O1655      C1661   1.274       .  A
O1656      C1661   1.281       .  A
C1657      C1686   1.460       .  S
O1658      C1660   1.270       .  A
O1659     Ni1670   1.905       .  S
C1660      O1666   1.276       .  A
H1662      O1663   0.966       .  S
O1663     Ni1671   1.907       .  S
O1663     Ni1665   1.889       .  S
O1663     Ni1670   1.889       .  S
O1664     Ni1665   1.960       .  S
Ni1665     O1669   1.891       .  S
Ni1665     O1667   1.919       .  S
O1666     Ni1671   1.944       .  S
C1668      O1669   1.260       .  A
C1673      C1674   1.405       .  A
C1673      C1678   1.409       .  A
C1673      C1694   1.494       .  S
C1674      C1675   1.406       .  A
C1674      H1679   1.084       .  S
C1675      C1676   1.418       .  A
C1675      C1742   1.488       .  S
C1676      C1677   1.417       .  A
C1676      H1680   1.083       .  S
C1677      C1678   1.407       .  A
C1678      H1681   1.084       .  S
C1682      C1705   1.463       .  S
C1683      C1684   1.410       .  A
C1684      C1685   1.395       .  A
C1684      C1745   1.475       .  S
C1685      C1686   1.385       .  A
C1685      H1689   1.086       .  S
C1686      C1687   1.387       .  A
C1687      H1690   1.085       .  S
O1691     Ni1697   1.893       .  S
O1691      C1712   1.269       .  A
O1692     Ni1715   1.891       .  S
O1692      C1701   1.259       .  A
O1693     Ni1697   1.890       .  S
O1693     Ni1715   1.889       .  S
O1693     Ni1709   1.907       .  S
O1693      H1716   0.966       .  S
C1694      O1711   1.274       .  A
C1694      O1703   1.281       .  A
O1695     Ni1714   1.922       .  S
O1695      C1701   1.277       .  A
O1696     Ni1714   1.923       .  S
O1696      C1698   1.269       .  A
Ni1697     O1700   1.905       .  S
Ni1697     O1702   1.913       .  S
C1698      C1730   1.488       .  S
C1698      O1708   1.276       .  A
O1699     Ni1715   1.918       .  S
O1699      C1705   1.274       .  A
O1700      C1705   1.274       .  A
C1701      C1719   1.475       .  S
O1702      C1704   1.267       .  A
O1703     Ni1714   1.943       .  S
C1704      O1710   1.278       .  A
H1706      O1707   0.966       .  S
O1707     Ni1715   1.929       .  S
O1707     Ni1709   1.903       .  S
O1707     Ni1714   1.908       .  S
O1708     Ni1709   1.943       .  S
Ni1709     O1713   1.903       .  S
Ni1709     O1711   1.915       .  S
O1710     Ni1715   1.960       .  S
C1712      O1713   1.263       .  A
C1717      C1718   1.416       .  A
C1717      C1722   1.407       .  A
C1718      C1719   1.410       .  A
C1718      H1723   1.083       .  S
C1719      C1720   1.395       .  A
C1720      C1721   1.385       .  A
C1720      H1724   1.086       .  S
C1721      C1722   1.387       .  A
C1721      C1965   1.460   1_545  S
C1722      H2077   1.085   1_545  S
H1725      C2074   1.085       .  S
C1726      C1727   1.409       .  A
C1726      C1731   1.405       .  A
C1726      C1738   1.494       .  S
C1727      C1728   1.407       .  A
C1727      H1732   1.084   1_545  S
C1728      C1729   1.417       .  A
C1728      C1962   1.492   1_545  S
C1729      C1730   1.418       .  A
C1729      H1733   1.083       .  S
C1730      C1731   1.406       .  A
C1731      H1734   1.084       .  S
O1735     Ni1741   1.893       .  S
O1735      C1756   1.269       .  A
O1736     Ni1759   1.891       .  S
O1736      C1745   1.259       .  A
O1737     Ni2093   1.890   1_545  S
O1737      H1760   0.966       .  S
C1738      O1755   1.274       .  A
C1738      O1747   1.281       .  A
O1739     Ni1758   1.922       .  S
O1739      C1745   1.277       .  A
O1740     Ni1758   1.923       .  S
Ni1741     O2096   1.905       .  S
Ni1741     O2089   1.890       .  S
C1742      O1752   1.276       .  A
O1743      C1749   1.274       .  A
O1744     Ni2093   1.905   1_545  S
O1744      C1749   1.274       .  A
O1746      C1748   1.267       .  A
O1747     Ni1758   1.943       .  S
C1748      O2106   1.278       .  A
H1750      O1751   0.966       .  S
O1751     Ni1759   1.929       .  S
O1751     Ni1753   1.903       .  S
O1751     Ni1758   1.908       .  S
Ni1753     O1755   1.915       .  S
O1754     Ni1759   1.960       .  S
O1754      C2100   1.278   1_545  A
C1756      O2109   1.263       .  A
O1757      C2108   1.263   1_545  A
C1761      C1762   1.416       .  A
C1761      C1766   1.407       .  A
C1761      C1782   1.463       .  S
C1762      C1763   1.410       .  A
C1762      H1767   1.083       .  S
C1763      C1764   1.395       .  A
C1763      C1844   1.475       .  S
C1764      C1765   1.386       .  A
C1764      H1768   1.086       .  S
C1765      C1766   1.387       .  A
C1765      C1932   1.461       .  S
C1766      H1769   1.085       .  S
C1770      C1947   1.409       .  A
C1770      C1951   1.405       .  A
C1770      C1793   1.494       .  S
C1771      C1946   1.409   1_554  A
C1771      C1772   1.407       .  A
C1771      H1952   1.084       .  S
C1772      C1773   1.417       .  A
C1772      C1924   1.492       .  S
C1773      C1774   1.418       .  A
C1773      H1777   1.083       .  S
C1774      C1775   1.407       .  A
C1774      C1836   1.488       .  S
C1775      C1946   1.405   1_554  A
C1775      H1954   1.084   1_554  S
H1776      C1947   1.084       .  S
H1778      C1951   1.084       .  S
O1779     Ni1785   1.922       .  S
O1779      C1800   1.277       .  A
O1780      C1789   1.263       .  A
O1781     Ni1785   1.908       .  S
O1781     Ni1803   1.902       .  S
O1781     Ni1797   1.929       .  S
O1781      H1804   0.966       .  S
C1782      O1799   1.274       .  A
C1782      O1791   1.275       .  A
O1783     Ni1802   1.893       .  S
O1783      C1789   1.269       .  A
O1784      C1786   1.267       .  A
Ni1785     O1788   1.943       .  S
Ni1785     O1790   1.923       .  S
C1786      O1796   1.278       .  A
O1787     Ni1803   1.915       .  S
O1787      C1793   1.274       .  A
O1788      C1793   1.281       .  A
O1791     Ni1802   1.905       .  S
C1792      C1809   1.488       .  S
C1792      O1798   1.276       .  A
H1794      O1795   0.966       .  S
O1795     Ni1802   1.889       .  S
O1796     Ni1797   1.960       .  S
Ni1797     O1801   1.891       .  S
C1800      C1816   1.475       .  S
C1800      O1801   1.260       .  A
C1805      C1806   1.409       .  A
C1805      C1810   1.405       .  A
C1805      C2013   1.494       .  S
C1806      C1807   1.407       .  A
C1806      H1811   1.084       .  S
C1807      C1808   1.417       .  A
C1807      C1880   1.492       .  S
C1808      C1809   1.418       .  A
C1808      H1812   1.083       .  S
C1809      C1810   1.407       .  A
C1810      H1813   1.084       .  S
C1814      C1815   1.416       .  A
C1814      C1819   1.407       .  A
C1814      C1826   1.463       .  S
C1815      C1816   1.410       .  A
C1815      H1820   1.083       .  S
C1816      C1817   1.395       .  A
C1817      C1818   1.386       .  A
C1817      H1821   1.086       .  S
C1818      C1819   1.387       .  A
C1818      C1888   1.461       .  S
C1819      H1822   1.085       .  S
O1823     Ni1829   1.922       .  S
O1823      C1844   1.277       .  A
O1824     Ni1847   1.903       .  S
O1824      C1833   1.263       .  A
O1825     Ni1829   1.908       .  S
O1825     Ni1847   1.902       .  S
O1825     Ni1841   1.929       .  S
O1825      H1848   0.966       .  S
C1826      O1843   1.274       .  A
C1826      O1835   1.275       .  A
O1827     Ni1846   1.893       .  S
O1827      C1833   1.269       .  A
O1828     Ni1846   1.913       .  S
O1828      C1830   1.267       .  A
Ni1829     O1832   1.943       .  S
Ni1829     O1834   1.923       .  S
C1830      C1853   1.492       .  S
C1830      O1840   1.278       .  A
O1831     Ni1847   1.915       .  S
O1831      C1837   1.274       .  A
O1832      C1837   1.281       .  A
C1833      C1862   1.460       .  S
O1834      C1836   1.270       .  A
O1835     Ni1846   1.905       .  S
C1836      O1842   1.276       .  A
C1837      C1981   1.494   1_554  S
H1838      O1839   0.966       .  S
O1839     Ni1847   1.907       .  S
O1839     Ni1841   1.889       .  S
O1839     Ni1846   1.889       .  S
O1840     Ni1841   1.960       .  S
Ni1841     O1845   1.891       .  S
Ni1841     O1843   1.919       .  S
O1842     Ni1847   1.944       .  S
C1844      O1845   1.260       .  A
C1849      C1850   1.405       .  A
C1849      C1854   1.409       .  A
C1849      C1870   1.494       .  S
C1850      C1851   1.406       .  A
C1850      H1855   1.084       .  S
C1851      C1852   1.418       .  A
C1851      C1918   1.488       .  S
C1852      C1853   1.417       .  A
C1852      H1856   1.083       .  S
C1853      C1854   1.407       .  A
C1854      H1857   1.084       .  S
C1858      C2035   1.416       .  A
C1858      C2039   1.407       .  A
C1858      C1881   1.463       .  S
C1859      C2034   1.416   1_554  A
C1859      C1860   1.410       .  A
C1859      H2040   1.083   1_554  S
C1860      C1861   1.395       .  A
C1860      C1921   1.475       .  S
C1861      C1862   1.385       .  A
C1861      H1865   1.086       .  S
C1862      C1863   1.387       .  A
C1863      C2034   1.407   1_554  A
C1863      H1866   1.085   1_554  S
H1864      C2035   1.083       .  S
O1867     Ni1873   1.893       .  S
O1867      C1888   1.269       .  A
O1868     Ni1891   1.891       .  S
O1868      C1877   1.259       .  A
O1869     Ni1873   1.890       .  S
O1869     Ni1891   1.889       .  S
O1869     Ni1885   1.907       .  S
O1869      H1892   0.966       .  S
C1870      O1887   1.274       .  A
C1870      O1879   1.281       .  A
O1871     Ni1890   1.922       .  S
O1871      C1877   1.277       .  A
O1872     Ni1890   1.923       .  S
O1872      C1874   1.269       .  A
Ni1873     O1876   1.905       .  S
Ni1873     O1878   1.913       .  S
C1874      C1906   1.488       .  S
C1874      O1884   1.276       .  A
O1875     Ni1891   1.918       .  S
O1875      C1881   1.274       .  A
O1876      C1881   1.274       .  A
C1877      C1895   1.475       .  S
O1878      C1880   1.267       .  A
O1879     Ni1890   1.943       .  S
C1880      O1886   1.278       .  A
H1882      O1883   0.966       .  S
O1883     Ni1891   1.929       .  S
O1883     Ni1885   1.903       .  S
O1883     Ni1890   1.908       .  S
O1884     Ni1885   1.943       .  S
Ni1885     O1889   1.903       .  S
Ni1885     O1887   1.915       .  S
O1886     Ni1891   1.960       .  S
C1888      O1889   1.263       .  A
C1893      C1894   1.416       .  A
C1893      C1898   1.407       .  A
C1893      C2101   1.463       .  S
C1894      C1895   1.410       .  A
C1894      H1899   1.083       .  S
C1895      C1896   1.395       .  A
C1896      C1897   1.385       .  A
C1896      H1900   1.086       .  S
C1897      C1898   1.387       .  A
C1902      C1903   1.409       .  A
C1902      C1907   1.405       .  A
C1902      C1914   1.494       .  S
C1903      C1904   1.407       .  A
C1903      H1908   1.084       .  S
C1904      C1905   1.417       .  A
C1905      C1906   1.418       .  A
C1905      H1909   1.083       .  S
C1906      C1907   1.406       .  A
C1907      H1910   1.084       .  S
O1911     Ni1917   1.893       .  S
O1911      C1932   1.269       .  A
O1912     Ni1935   1.891       .  S
O1912      C1921   1.259       .  A
O1913      H1936   0.966       .  S
C1914      O1931   1.274       .  A
C1914      O1923   1.281       .  A
O1915     Ni1934   1.922       .  S
O1915      C1921   1.277       .  A
O1916     Ni1934   1.923       .  S
C1918      O1928   1.276       .  A
O1919      C1925   1.274       .  A
O1920      C1925   1.274       .  A
O1922      C1924   1.267       .  A
O1923     Ni1934   1.943       .  S
C1925      C2069   1.463   1_554  S
H1926      O1927   0.966       .  S
O1927     Ni1935   1.929       .  S
O1927     Ni1929   1.903       .  S
O1927     Ni1934   1.908       .  S
Ni1929     O1931   1.915       .  S
O1930     Ni1935   1.960       .  S
C1937      C1938   1.416       .  A
C1937      C1942   1.407       .  A
C1937      C1958   1.463       .  S
C1938      C1939   1.410       .  A
C1938      H1943   1.083       .  S
C1939      C1940   1.395       .  A
C1939      C2020   1.475       .  S
C1940      C1941   1.386       .  A
C1940      H1944   1.086       .  S
C1941      C1942   1.387       .  A
C1941      C2108   1.461       .  S
C1942      H1945   1.085       .  S
C1946      C1969   1.494       .  S
C1947      C1948   1.407       .  A
C1948      C1949   1.417       .  A
C1948      C2100   1.492       .  S
C1949      C1950   1.418       .  A
C1949      H1953   1.083       .  S
C1950      C1951   1.407       .  A
C1950      C2012   1.488       .  S
O1955     Ni1961   1.922       .  S
O1955      C1976   1.277       .  A
O1956      C1965   1.263       .  A
O1957     Ni1961   1.908       .  S
O1957     Ni1979   1.902       .  S
O1957     Ni1973   1.929       .  S
O1957      H1980   0.966       .  S
C1958      O1975   1.274       .  A
C1958      O1967   1.275       .  A
O1959     Ni1978   1.893       .  S
O1959      C1965   1.269       .  A
O1960      C1962   1.267       .  A
Ni1961     O1964   1.943       .  S
Ni1961     O1966   1.923       .  S
C1962      O1972   1.278       .  A
O1963     Ni1979   1.915       .  S
O1963      C1969   1.274       .  A
O1964      C1969   1.281       .  A
O1967     Ni1978   1.905       .  S
C1968      C1985   1.488       .  S
C1968      O1974   1.276       .  A
H1970      O1971   0.966       .  S
O1971     Ni1978   1.889       .  S
O1972     Ni1973   1.960       .  S
Ni1973     O1977   1.891       .  S
C1976      C1992   1.475       .  S
C1976      O1977   1.260       .  A
C1981      C1982   1.409       .  A
C1981      C1986   1.405       .  A
C1982      C1983   1.407       .  A
C1982      H1987   1.084       .  S
C1983      C1984   1.417       .  A
C1983      C2056   1.492       .  S
C1984      C1985   1.418       .  A
C1984      H1988   1.083       .  S
C1985      C1986   1.407       .  A
C1986      H1989   1.084       .  S
C1990      C1991   1.416       .  A
C1990      C1995   1.407       .  A
C1990      C2002   1.463       .  S
C1991      C1992   1.410       .  A
C1991      H1996   1.083       .  S
C1992      C1993   1.395       .  A
C1993      C1994   1.386       .  A
C1993      H1997   1.086       .  S
C1994      C1995   1.387       .  A
C1994      C2064   1.461       .  S
C1995      H1998   1.085       .  S
O1999     Ni2005   1.922       .  S
O1999      C2020   1.277       .  A
O2000     Ni2023   1.903       .  S
O2000      C2009   1.263       .  A
O2001     Ni2005   1.908       .  S
O2001     Ni2023   1.902       .  S
O2001     Ni2017   1.929       .  S
O2001      H2024   0.966       .  S
C2002      O2019   1.274       .  A
C2002      O2011   1.275       .  A
O2003     Ni2022   1.893       .  S
O2003      C2009   1.269       .  A
O2004     Ni2022   1.913       .  S
O2004      C2006   1.267       .  A
Ni2005     O2008   1.943       .  S
Ni2005     O2010   1.923       .  S
C2006      C2029   1.492       .  S
C2006      O2016   1.278       .  A
O2007     Ni2023   1.915       .  S
O2007      C2013   1.274       .  A
O2008      C2013   1.281       .  A
C2009      C2038   1.460       .  S
O2010      C2012   1.270       .  A
O2011     Ni2022   1.905       .  S
C2012      O2018   1.276       .  A
H2014      O2015   0.966       .  S
O2015     Ni2023   1.907       .  S
O2015     Ni2017   1.889       .  S
O2015     Ni2022   1.889       .  S
O2016     Ni2017   1.960       .  S
Ni2017     O2021   1.891       .  S
Ni2017     O2019   1.919       .  S
O2018     Ni2023   1.944       .  S
C2020      O2021   1.260       .  A
C2025      C2026   1.405       .  A
C2025      C2030   1.409       .  A
C2025      C2046   1.494       .  S
C2026      C2027   1.406       .  A
C2026      H2031   1.084       .  S
C2027      C2028   1.418       .  A
C2027      C2094   1.488       .  S
C2028      C2029   1.417       .  A
C2028      H2032   1.083       .  S
C2029      C2030   1.407       .  A
C2030      H2033   1.084       .  S
C2034      C2057   1.463       .  S
C2035      C2036   1.410       .  A
C2036      C2037   1.395       .  A
C2036      C2097   1.475       .  S
C2037      C2038   1.385       .  A
C2037      H2041   1.086       .  S
C2038      C2039   1.387       .  A
C2039      H2042   1.085       .  S
O2043     Ni2049   1.893       .  S
O2043      C2064   1.269       .  A
O2044     Ni2067   1.891       .  S
O2044      C2053   1.259       .  A
O2045     Ni2049   1.890       .  S
O2045     Ni2067   1.889       .  S
O2045     Ni2061   1.907       .  S
O2045      H2068   0.966       .  S
C2046      O2063   1.274       .  A
C2046      O2055   1.281       .  A
O2047     Ni2066   1.922       .  S
O2047      C2053   1.277       .  A
O2048     Ni2066   1.923       .  S
O2048      C2050   1.269       .  A
Ni2049     O2052   1.905       .  S
Ni2049     O2054   1.913       .  S
C2050      C2082   1.488       .  S
C2050      O2060   1.276       .  A
O2051     Ni2067   1.918       .  S
O2051      C2057   1.274       .  A
O2052      C2057   1.274       .  A
C2053      C2071   1.475       .  S
O2054      C2056   1.267       .  A
O2055     Ni2066   1.943       .  S
C2056      O2062   1.278       .  A
H2058      O2059   0.966       .  S
O2059     Ni2067   1.929       .  S
O2059     Ni2061   1.903       .  S
O2059     Ni2066   1.908       .  S
O2060     Ni2061   1.943       .  S
Ni2061     O2065   1.903       .  S
Ni2061     O2063   1.915       .  S
O2062     Ni2067   1.960       .  S
C2064      O2065   1.263       .  A
C2069      C2070   1.416       .  A
C2069      C2074   1.407       .  A
C2070      C2071   1.410       .  A
C2070      H2075   1.083       .  S
C2071      C2072   1.395       .  A
C2072      C2073   1.385       .  A
C2072      H2076   1.086       .  S
C2073      C2074   1.387       .  A
C2078      C2079   1.409       .  A
C2078      C2083   1.405       .  A
C2078      C2090   1.494       .  S
C2079      C2080   1.407       .  A
C2079      H2084   1.084       .  S
C2080      C2081   1.417       .  A
C2081      C2082   1.418       .  A
C2081      H2085   1.083       .  S
C2082      C2083   1.406       .  A
C2083      H2086   1.084       .  S
O2087     Ni2093   1.893       .  S
O2087      C2108   1.269       .  A
O2088     Ni2111   1.891       .  S
O2088      C2097   1.259       .  A
O2089      H2112   0.966       .  S
C2090      O2107   1.274       .  A
C2090      O2099   1.281       .  A
O2091     Ni2110   1.922       .  S
O2091      C2097   1.277       .  A
O2092     Ni2110   1.923       .  S
C2094      O2104   1.276       .  A
O2095      C2101   1.274       .  A
O2096      C2101   1.274       .  A
O2098      C2100   1.267       .  A
O2099     Ni2110   1.943       .  S
H2102      O2103   0.966       .  S
O2103     Ni2111   1.929       .  S
O2103     Ni2105   1.903       .  S
O2103     Ni2110   1.908       .  S
Ni2105     O2107   1.915       .  S
O2106     Ni2111   1.960       .  S
