geometry optimzed in LAMMPS
_audit_creation_date              2020-11-30 
_audit_creation_method            'lammps2cif' 
_symmetry_space_group_name_H-M    'P1' 
_symmetry_Int_Tables_number       1 
_symmetry_cell_setting            triclinic 
loop_ 
_symmetry_equiv_pos_as_xyz 
  x,y,z 
_cell_length_a                    65.5447966 
_cell_length_b                    65.4928520227892 
_cell_length_c                    65.4590467352414 
_cell_angle_alpha                 90.04678671946894 
_cell_angle_beta                  89.93139431705778 
_cell_angle_gamma                 89.98670645316345 
loop_ 
_atom_site_label 
_atom_site_type_symbol 
_atom_site_fract_x 
_atom_site_fract_y 
_atom_site_fract_z 
_atom_site_charge 
Zn1        Zn  0.99173582  0.99673277  0.02612661     1.49700
Zn2        Zn  0.98168771  0.98211807  0.98020794     1.49400
Zn3        Zn  0.99718761  0.02757490  0.98892681     1.49100
Zn4        Zn  0.02807383  0.98997688  0.99429998     1.49500
O5          O  0.99963632  0.99902146  0.99731773    -1.84500
O6          O  0.96883791  0.97681333  0.02937984    -0.75100
O7          O  0.96498239  0.99976951  0.96068101    -0.74900
O8          O  0.98581297  0.04472003  0.01184900    -0.74400
O9          O  0.96258111  0.96521993  0.99807838    -0.75100
O10         O  0.98205266  0.02361874  0.03807911    -0.74700
O11         O  0.97784324  0.03077800  0.96531456    -0.75300
O12         O  0.04581106  0.01326979  0.98465703    -0.74700
O13         O  0.99854046  0.96269629  0.96280690    -0.75500
O14         O  0.02436241  0.03914023  0.98014601    -0.74800
O15         O  0.03040085  0.96763852  0.97325364    -0.75300
O16         O  0.03967283  0.97900218  0.02082972    -0.75200
O17         O  0.01487498  0.98553525  0.04300192    -0.75000
C18         C  0.95912770  0.96513547  0.01728587     0.76800
C19         C  0.96576069  0.01870023  0.95607062     0.77300
C20         C  0.98035364  0.04133023  0.03023016     0.76200
C21         C  0.04228636  0.03165239  0.97932328     0.76600
C22         C  0.01754171  0.95854205  0.96187200     0.77700
C23         C  0.03259648  0.97858946  0.03896307     0.76800
C24         C  0.09013574  0.31466905  0.13078404     0.79900
N25         N  0.07583364  0.29966871  0.13012790    -0.78400
C26         C  0.05726745  0.30311819  0.12184099     0.82300
N27         N  0.05314657  0.32165677  0.11381048    -0.78400
C28         C  0.06719272  0.33688121  0.11390930     0.82400
N29         N  0.08579204  0.33345488  0.12273089    -0.80100
C30         C  0.93510335  0.16346470  0.11286760     0.79900
N31         N  0.94950859  0.17834280  0.11248876    -0.78400
C32         C  0.94768262  0.19539640  0.12393422     0.82300
N33         N  0.93107920  0.19760566  0.13599483    -0.78400
C34         C  0.91631752  0.18305652  0.13676061     0.82400
N35         N  0.91832411  0.16580446  0.12510702    -0.80100
C36         C  0.81690890  0.13112124  0.40966298     0.79900
N37         N  0.80303397  0.13130301  0.42510805    -0.78400
C38         C  0.80744347  0.12317250  0.44359793     0.82300
N39         N  0.82605286  0.11473047  0.44663937    -0.78400
C40         C  0.84013466  0.11412707  0.43142323     0.82400
N41         N  0.83555409  0.12234570  0.41281547    -0.80100
C42         C  0.68965908  0.12718287  0.58791121     0.79900
N43         N  0.67104819  0.11861120  0.58386030    -0.78400
C44         C  0.66757499  0.10976881  0.56523182     0.82300
N45         N  0.68260501  0.10989058  0.55094254    -0.78400
C46         C  0.70095542  0.11842143  0.55474165     0.82400
N47         N  0.70432090  0.12694872  0.57322128    -0.80100
Zn48       Zn  0.78160691  0.25122522  0.25965983     1.49700
Zn49       Zn  0.75111236  0.24502043  0.22125260     1.49400
Zn50       Zn  0.73582596  0.23514384  0.26691622     1.49100
Zn51       Zn  0.74382878  0.28104543  0.25331352     1.49500
O52         O  0.75315757  0.25295668  0.25023780    -1.84500
O53         O  0.79939635  0.24010384  0.23691222    -0.75100
O54         O  0.72911746  0.22344931  0.21718095    -0.74900
O55         O  0.75323198  0.21737486  0.28551422    -0.74400
O56         O  0.77818012  0.23348040  0.21123465    -0.75100
O57         O  0.78428458  0.23063853  0.28245991    -0.74700
O58         O  0.71850357  0.21688280  0.24873444    -0.75300
O59         O  0.72028814  0.28333343  0.27257781    -0.74700
O60         O  0.74296542  0.26930100  0.20364834    -0.75500
O61         O  0.71640846  0.25191224  0.28459553    -0.74800
O62         O  0.73516680  0.29304647  0.22662354    -0.75300
O63         O  0.76568730  0.29880357  0.26518800    -0.75200
O64         O  0.79237370  0.27863246  0.27032836    -0.75000
C65         C  0.79597638  0.23287025  0.21912351     0.76800
C66         C  0.71744178  0.21387695  0.22948927     0.77300
C67         C  0.77205154  0.21784459  0.29051254     0.76200
C68         C  0.71151797  0.27077987  0.28448815     0.76600
C69         C  0.73616239  0.28699561  0.20818488     0.77700
C70         C  0.78381782  0.29610634  0.27157372     0.76800
C71         C  0.81381565  0.64821098  0.58073498     0.79900
N72         N  0.80151853  0.65037926  0.56419284    -0.78400
C73         C  0.80654447  0.64214108  0.54590909     0.82300
N74         N  0.82410012  0.63142952  0.54424389    -0.78400
C75         C  0.83677318  0.62898791  0.56045227     0.82400
N76         N  0.83161633  0.63746051  0.57884105    -0.80100
C77         C  0.68229038  0.63131451  0.40830833     0.79900
N78         N  0.69779702  0.63335573  0.42182107    -0.78400
C79         C  0.69594210  0.62651337  0.44122496     0.82300
N80         N  0.67843791  0.61705128  0.44696833    -0.78400
C81         C  0.66277627  0.61462286  0.43354426     0.82400
N82         N  0.66465301  0.62206352  0.41417745    -0.80100
Zn83       Zn  0.01463631  0.48636462  0.52326376     1.49700
Zn84       Zn  0.00540312  0.50134117  0.47758210     1.49400
Zn85       Zn  0.96841977  0.49610263  0.50959445     1.49100
Zn86       Zn  0.00064473  0.53274416  0.51473159     1.49500
O87         O  0.99727347  0.50409378  0.50634245    -1.84500
O88         O  0.03330057  0.46879986  0.50545463    -0.75100
O89         O  0.98174579  0.49078669  0.46091006    -0.74900
O90         O  0.96542580  0.47328348  0.53017828    -0.74400
O91         O  0.02799820  0.48061402  0.47411363    -0.75100
O92         O  0.99715903  0.46713153  0.54029988    -0.74700
O93         O  0.95617053  0.48619738  0.48271978    -0.75300
O94         O  0.97393482  0.54504943  0.52439164    -0.74700
O95         O  0.01535057  0.52824780  0.46565686    -0.75500
O96         O  0.95171216  0.51978324  0.52035642    -0.74800
O97         O  0.01154187  0.54998104  0.49142416    -0.75300
O98         O  0.02075207  0.53510446  0.53796019    -0.75200
O99         O  0.03204153  0.50345628  0.54270951    -0.75000
C100        C  0.03711618  0.46854849  0.48632188     0.76800
C101        C  0.96354211  0.48503324  0.46470745     0.77300
C102        C  0.97805165  0.46345564  0.54121492     0.76200
C103        C  0.95584946  0.53803056  0.52576856     0.76600
C104        C  0.01686171  0.54620754  0.47305638     0.77700
C105        C  0.03229288  0.52245410  0.54716274     0.76800
C106        C  0.40679640  0.81607985  0.12536692     0.79900
N107        N  0.41177159  0.83456226  0.11703925    -0.78400
C108        C  0.43070048  0.83743611  0.10874118     0.82300
N109        N  0.44442189  0.82191270  0.10934023    -0.78400
C110        C  0.43971634  0.80363561  0.11773968     0.82400
N111        N  0.42080872  0.80079385  0.12559145    -0.80100
C112        C  0.58437942  0.68829364  0.13437142     0.79900
N113        N  0.58155369  0.66928441  0.12628461    -0.78400
C114        C  0.56296286  0.66391459  0.11860470     0.82300
N115        N  0.54740991  0.67762214  0.11887675    -0.78400
C116        C  0.55016294  0.69665224  0.12652442     0.82400
N117        N  0.56862764  0.70177838  0.13425567    -0.80100
C118        C  0.12546544  0.09123285  0.31371297     0.79900
N119        N  0.12400984  0.07743355  0.29825231    -0.78400
C120        C  0.11598302  0.05866295  0.30150756     0.82300
N121        N  0.10929110  0.05380760  0.32042650    -0.78400
C122        C  0.11052451  0.06726487  0.33614073     0.82400
N123        N  0.11880590  0.08607873  0.33279587    -0.80100
C124        C  0.13502354  0.91556707  0.18378273     0.79900
N125        N  0.13421915  0.93060571  0.19814485    -0.78400
C126        C  0.12429452  0.94834564  0.19445240     0.82300
N127        N  0.11515371  0.95099616  0.17620095    -0.78400
C128        C  0.11553283  0.93636279  0.16155290     0.82400
N129        N  0.12549241  0.91840402  0.16537742    -0.80100
Zn130      Zn  0.23228007  0.76785348  0.26697887     1.49700
Zn131      Zn  0.27889121  0.75585819  0.25638695     1.49400
Zn132      Zn  0.24382468  0.72198623  0.25423868     1.49100
Zn133      Zn  0.24531083  0.75779626  0.22073423     1.49500
O134        O  0.25005420  0.75094063  0.24958761    -1.84500
O135        O  0.24918486  0.78324444  0.28790361    -0.75100
O136        O  0.29320619  0.72981348  0.26547528    -0.74900
O137        O  0.22183432  0.71855229  0.27555068    -0.74400
O138        O  0.28125340  0.77566355  0.27984453    -0.75100
O139        O  0.21243594  0.75023516  0.28310248    -0.74700
O140        O  0.26837227  0.70678939  0.26476586    -0.75300
O141        O  0.23315003  0.73367702  0.20567433    -0.74700
O142        O  0.29420534  0.76758544  0.23225002    -0.75500
O143        O  0.23379987  0.70836607  0.22829714    -0.74800
O144        O  0.27180281  0.76643129  0.20679236    -0.75300
O145        O  0.22528119  0.78127007  0.21794984    -0.75200
O146        O  0.21626145  0.78844304  0.24987731    -0.75000
C147        C  0.26831611  0.78490618  0.29106272     0.76800
C148        C  0.28679590  0.71168611  0.26851480     0.77300
C149        C  0.21057768  0.73097940  0.28541086     0.76200
C150        C  0.22977568  0.71511735  0.21048592     0.76600
C151        C  0.28965291  0.77035790  0.21352561     0.77700
C152        C  0.21505043  0.79186637  0.23070230     0.76800
Zn153      Zn  0.24429338  0.24359037  0.28290164     1.49700
Zn154      Zn  0.23144988  0.23374122  0.23657200     1.49400
Zn155      Zn  0.24100472  0.27991935  0.25050214     1.49100
Zn156      Zn  0.27726587  0.24710976  0.24618346     1.49500
O157        O  0.24850999  0.25111007  0.25404544    -1.84500
O158        O  0.22428762  0.22026355  0.28561896    -0.75100
O159        O  0.21084413  0.25077484  0.22113609    -0.74900
O160        O  0.23111547  0.29273725  0.27726022    -0.74400
O161        O  0.21600675  0.21309251  0.25350576    -0.75100
O162        O  0.23243211  0.26696224  0.29924846    -0.74700
O163        O  0.21832112  0.28278823  0.22960589    -0.75300
O164        O  0.29047205  0.27365994  0.23669295    -0.74700
O165        O  0.24836008  0.21801607  0.21581091    -0.75500
O166        O  0.26513409  0.29594892  0.23996542    -0.74800
O167        O  0.28027067  0.22646289  0.22327590    -0.75300
O168        O  0.29306417  0.23609596  0.27007003    -0.75200
O169        O  0.27095842  0.23468427  0.29585801    -0.75000
C170        C  0.21444161  0.20968837  0.27261280     0.76800
C171        C  0.20770247  0.26992552  0.21956863     0.77300
C172        C  0.22815163  0.28547600  0.29511322     0.76200
C173        C  0.28349649  0.29176501  0.23501087     0.76600
C174        C  0.26748934  0.21641210  0.21261328     0.77700
C175        C  0.28884411  0.23201649  0.28863115     0.76800
C176        C  0.56246179  0.83877508  0.61585887     0.79900
N177        N  0.54804024  0.82385319  0.61630726    -0.78400
C178        C  0.55095050  0.80647836  0.62701391     0.82300
N179        N  0.56847092  0.80407123  0.63749017    -0.78400
C180        C  0.58314973  0.81864238  0.63756696     0.82400
N181        N  0.58021211  0.83615344  0.62656826    -0.80100
C182        C  0.43408697  0.66242872  0.61594056     0.79900
N183        N  0.44846771  0.67739113  0.61615572    -0.78400
C184        C  0.44616107  0.69421212  0.62795040     0.82300
N185        N  0.42927203  0.69603633  0.63964256    -0.78400
C186        C  0.41466862  0.68136793  0.63987880     0.82400
N187        N  0.41707006  0.66440110  0.62792230    -0.80100
Zn188      Zn  0.52052388  0.01772635  0.47854804     1.49700
Zn189      Zn  0.47421093  0.01040025  0.49241219     1.49400
Zn190      Zn  0.50397846  0.97223634  0.48719040     1.49100
Zn191      Zn  0.51047942  0.00349788  0.52417301     1.49500
O192        O  0.50234391  0.00096185  0.49552184    -1.84500
O193        O  0.50437434  0.03744203  0.46092827    -0.75100
O194        O  0.45599733  0.98794137  0.48172743    -0.74900
O195        O  0.52450838  0.96868764  0.46467990    -0.74400
O196        O  0.47266451  0.03323121  0.47216356    -0.75100
O197        O  0.53709524  0.99977689  0.45968674    -0.74700
O198        O  0.47669023  0.96152084  0.47693727    -0.75300
O199        O  0.52003484  0.97649607  0.53575016    -0.74700
O200        O  0.46270223  0.02113607  0.51890768    -0.75500
O201        O  0.51420162  0.95470921  0.51040723    -0.74800
O202        O  0.48750737  0.01490388  0.54110535    -0.75300
O203        O  0.53341979  0.02346078  0.52754342    -0.75200
O204        O  0.54000425  0.03429201  0.49612016    -0.75000
C205        C  0.48549096  0.04210044  0.46058481     0.76800
C206        C  0.45902600  0.96962780  0.47585228     0.77300
C207        C  0.53673100  0.98074301  0.45558347     0.76200
C208        C  0.52057623  0.95846988  0.52841874     0.76600
C209        C  0.46982133  0.02184186  0.53698291     0.77700
C210        C  0.54340361  0.03475364  0.51530359     0.76800
C211        C  0.31434116  0.36506452  0.58688078     0.79900
N212        N  0.29896620  0.36683396  0.57309210    -0.78400
C213        C  0.30210517  0.37579239  0.55473843     0.82300
N214        N  0.32082860  0.38323728  0.55030961    -0.78400
C215        C  0.33648333  0.38186364  0.56380145     0.82400
N216        N  0.33325903  0.37255852  0.58221742    -0.80100
C217        C  0.17963329  0.36856072  0.41545052     0.79900
N218        N  0.16058921  0.37587713  0.41990917    -0.78400
C219        C  0.15676691  0.38423178  0.43868917     0.82300
N220        N  0.17198641  0.38496868  0.45274557    -0.78400
C221        C  0.19086670  0.37775405  0.44847307     0.82400
N222        N  0.19454895  0.36966701  0.42978823    -0.80100
C223        C  0.56415232  0.33587416  0.38128998     0.79900
N224        N  0.54942896  0.32144066  0.37943528    -0.78400
C225        C  0.55321627  0.30342328  0.37022780     0.82300
N226        N  0.57198315  0.29972423  0.36259206    -0.78400
C227        C  0.58702139  0.31393328  0.36381959     0.82400
N228        N  0.58313259  0.33215342  0.37335001    -0.80100
C229        C  0.41080788  0.18408805  0.36637407     0.79900
N230        N  0.41636211  0.16479016  0.37189289    -0.78400
C231        C  0.43603245  0.16080324  0.37735535     0.82300
N232        N  0.44997847  0.17607631  0.37684014    -0.78400
C233        C  0.44453205  0.19525551  0.37153317     0.82400
N234        N  0.42492338  0.19926569  0.36648634    -0.80100
C235        C  0.63281295  0.58978550  0.81753206     0.79900
N236        N  0.63418844  0.57444934  0.80365884    -0.78400
C237        C  0.62839439  0.55520419  0.80831453     0.82300
N238        N  0.62116636  0.55121783  0.82727553    -0.78400
C239        C  0.61949356  0.56630509  0.84142326     0.82400
N240        N  0.62523644  0.58572779  0.83652484    -0.80100
C241        C  0.63354692  0.41464243  0.68702008     0.79900
N242        N  0.63376404  0.42959609  0.70133689    -0.78400
C243        C  0.62376053  0.44739555  0.69857346     0.82300
N244        N  0.61317044  0.45028876  0.68106525    -0.78400
C245        C  0.61263277  0.43559211  0.66636057     0.82400
N246        N  0.62296053  0.41768368  0.66931740    -0.80100
Zn247      Zn  0.48253690  0.48130559  0.48219161     1.49700
Zn248      Zn  0.52833239  0.48945127  0.49787392     1.49400
Zn249      Zn  0.49750290  0.52698263  0.49105504     1.49100
Zn250      Zn  0.49063237  0.49616942  0.52845115     1.49500
O251        O  0.49972271  0.49843871  0.49989124    -1.84500
O252        O  0.49997268  0.46124525  0.46614797    -0.75100
O253        O  0.54610626  0.51200837  0.48659759    -0.74900
O254        O  0.47828742  0.52987005  0.46719713    -0.74400
O255        O  0.53121496  0.46570451  0.47845541    -0.75100
O256        O  0.46651173  0.49857349  0.46176143    -0.74700
O257        O  0.52491842  0.53807031  0.48197759    -0.75300
O258        O  0.48077718  0.52354477  0.53962188    -0.74700
O259        O  0.53949842  0.48026639  0.52528625    -0.75500
O260        O  0.48585367  0.54468387  0.51358572    -0.74800
O261        O  0.51326860  0.48500783  0.54627758    -0.75300
O262        O  0.46752496  0.47594225  0.53100221    -0.75200
O263        O  0.46265093  0.46474430  0.49934018    -0.75000
C264        C  0.51885119  0.45650228  0.46662259     0.76800
C265        C  0.54271727  0.53028361  0.48082433     0.77300
C266        C  0.46684646  0.51757586  0.45741681     0.76200
C267        C  0.47965336  0.54133514  0.53175173     0.76600
C268        C  0.53153689  0.47911843  0.54302593     0.77700
C269        C  0.45835569  0.46434636  0.51836342     0.76800
C270        C  0.31325383  0.13052284  0.09305718     0.79900
N271        N  0.33115004  0.12070658  0.08852812    -0.78400
C272        C  0.33386445  0.11240208  0.06951912     0.82300
N273        N  0.31893505  0.11456021  0.05536231    -0.78400
C274        C  0.30136014  0.12444782  0.05963741     0.82400
N275        N  0.29853876  0.13220780  0.07857388    -0.80100
C276        C  0.16300530  0.11759809  0.93787040     0.79900
N277        N  0.16705601  0.12517168  0.91886309    -0.78400
C278        C  0.18537927  0.13437448  0.91509415     0.82300
N279        N  0.19938151  0.13607843  0.93026120    -0.78400
C280        C  0.19527087  0.12893175  0.94923184     0.82400
N281        N  0.17717883  0.11970921  0.95278072    -0.80100
C282        C  0.11515082  0.42451164  0.84195667     0.79900
N283        N  0.11380190  0.43888519  0.82710099    -0.78400
C284        C  0.12525451  0.43749586  0.80990669     0.82300
N285        N  0.13800664  0.42134276  0.80752096    -0.78400
C286        C  0.13912737  0.40656920  0.82204452     0.82400
N287        N  0.12771066  0.40817355  0.83936864    -0.80100
C288        C  0.13133662  0.58323046  0.69540284     0.79900
N289        N  0.12156054  0.58061318  0.67711919    -0.78400
C290        C  0.11096004  0.56299590  0.67339220     0.82300
N291        N  0.11008083  0.54838004  0.68810533    -0.78400
C292        C  0.11971423  0.55083010  0.70619249     0.82400
N293        N  0.13037148  0.56816759  0.70963264    -0.80100
Zn294      Zn  0.22272094  0.24114100  0.75767906     1.49700
Zn295      Zn  0.25203489  0.23605665  0.71859062     1.49400
Zn296      Zn  0.25783882  0.27333319  0.74940515     1.49100
Zn297      Zn  0.26923795  0.22798107  0.76437710     1.49500
O298        O  0.25056449  0.24447666  0.74748670    -1.84500
O299        O  0.20505406  0.22820641  0.73628431    -0.75100
O300        O  0.26262174  0.25904165  0.70034074    -0.74900
O301        O  0.23440274  0.29030550  0.75934125    -0.74400
O302        O  0.22453923  0.22542419  0.70862565    -0.75100
O303        O  0.21009221  0.26791974  0.76675659    -0.74700
O304        O  0.26671776  0.28461302  0.72227557    -0.75300
O305        O  0.29005417  0.24627583  0.77838989    -0.74700
O306        O  0.27183923  0.21287139  0.71538900    -0.75500
O307        O  0.28083585  0.27762620  0.76927335    -0.74800
O308        O  0.28423996  0.20747682  0.74651198    -0.75300
O309        O  0.25385807  0.21228900  0.78672986    -0.75200
O310        O  0.22193661  0.22230608  0.78168444    -0.75000
C311        C  0.20754019  0.22272992  0.71777523     0.76800
C312        C  0.26794926  0.27737141  0.70426669     0.77300
C313        C  0.21672202  0.28619395  0.76623017     0.76200
C314        C  0.29235871  0.26561176  0.77928176     0.76600
C315        C  0.28354975  0.20319261  0.72748997     0.77700
C316        C  0.23497609  0.21184491  0.79153387     0.76800
Zn317      Zn  0.47193455  0.99417236  0.99950408     1.49700
Zn318      Zn  0.51002713  0.00064617  0.96965114     1.49400
Zn319      Zn  0.50195889  0.03190021  0.00679013     1.49100
Zn320      Zn  0.51719626  0.98613788  0.01604087     1.49500
O321        O  0.50037549  0.00321732  0.99802281    -1.84500
O322        O  0.46164502  0.98461679  0.97217230    -0.75100
O323        O  0.52049419  0.02767398  0.95879772    -0.74900
O324        O  0.47425325  0.04283329  0.01587387    -0.74400
O325        O  0.48769555  0.99001789  0.95115302    -0.75100
O326        O  0.45366406  0.01655731  0.01009218    -0.74700
O327        O  0.51335511  0.04931539  0.98397582    -0.75300
O328        O  0.53285583  0.00381579  0.03625828    -0.74700
O329        O  0.53314994  0.98050561  0.96761510    -0.75500
O330        O  0.52150622  0.03523975  0.03047949    -0.74800
O331        O  0.53807791  0.97015796  0.99951962    -0.75300
O332        O  0.49952633  0.96575073  0.03168995    -0.75200
O333        O  0.46858231  0.97064286  0.01885412    -0.75000
C334        C  0.46953922  0.98382917  0.95441254     0.76800
C335        C  0.52062527  0.04566037  0.96625665     0.77300
C336        C  0.45654873  0.03474632  0.01637835     0.76200
C337        C  0.53291903  0.02290301  0.04025281     0.76600
C338        C  0.54266845  0.96960928  0.98057793     0.77700
C339        C  0.48060038  0.96118639  0.03080590     0.76800
C340        C  0.88168865  0.44129542  0.34137503     0.79900
N341        N  0.87026911  0.42397153  0.33872796    -0.78400
C342        C  0.86027935  0.42081441  0.32063514     0.82300
N343        N  0.86196034  0.43493277  0.30556466    -0.78400
C344        C  0.87322559  0.45200777  0.30796653     0.82400
N345        N  0.88299255  0.45504666  0.32587535    -0.80100
C346        C  0.86735924  0.58806324  0.18320270     0.79900
N347        N  0.86927698  0.57382100  0.19809771    -0.78400
C348        C  0.87648251  0.55490429  0.19388321     0.82300
N349        N  0.88194257  0.55025294  0.17444470    -0.78400
C350        C  0.88047535  0.56442962  0.15936023     0.82400
N351        N  0.87309084  0.58339437  0.16374402    -0.80100
C352        C  0.61732924  0.06960059  0.16114543     0.79900
N353        N  0.62607731  0.08831178  0.16466121    -0.78400
C354        C  0.63561901  0.09201306  0.18293784     0.82300
N355        N  0.63603584  0.07708474  0.19731341    -0.78400
C356        C  0.62742645  0.05867583  0.19401541     0.82400
N357        N  0.61819977  0.05510013  0.17594385    -0.80100
C358        C  0.61548260  0.93554259  0.33217386     0.79900
N359        N  0.61662396  0.95066676  0.31805286    -0.78400
C360        C  0.62799370  0.94848774  0.30095307     0.82300
N361        N  0.63837480  0.93088618  0.29797783    -0.78400
C362        C  0.63755801  0.91551805  0.31186728     0.82400
N363        N  0.62605870  0.91787030  0.32909330    -0.80100
C364        C  0.06663961  0.66419610  0.38600563     0.79900
N365        N  0.08627624  0.66601621  0.37915015    -0.78400
C366        C  0.09221461  0.68333398  0.36922858     0.82300
N367        N  0.07855808  0.69848689  0.36600457    -0.78400
C368        C  0.05899888  0.69672395  0.37229363     0.82400
N369        N  0.05315590  0.67959621  0.38237198    -0.80100
C370        C  0.94224384  0.83887362  0.37040746     0.79900
N371        N  0.95823846  0.82611693  0.36690916    -0.78400
C372        C  0.95557645  0.80817922  0.35699995     0.82300
N373        N  0.93671767  0.80309579  0.35048130    -0.78400
C374        C  0.92043434  0.81544791  0.35368107     0.82400
N375        N  0.92315723  0.83345477  0.36391145    -0.80100
C376        C  0.81834639  0.86648300  0.09184349     0.79900
N377        N  0.80320222  0.86684704  0.07772455    -0.78400
C378        C  0.80633499  0.87543764  0.05923794     0.82300
N379        N  0.82469758  0.88365491  0.05481543    -0.78400
C380        C  0.84017190  0.88319076  0.06855020     0.82400
N381        N  0.83700103  0.87453765  0.08724007    -0.80100
C382        C  0.66743938  0.88992930  0.93794197     0.79900
N383        N  0.68241786  0.88976201  0.95223545    -0.78400
C384        C  0.69918916  0.87795016  0.94996897     0.82300
N385        N  0.70101984  0.86615837  0.93309735    -0.78400
C386        C  0.68638242  0.86616395  0.91843121     0.82400
N387        N  0.66945973  0.87807641  0.92089166    -0.80100
Zn388      Zn  0.76632915  0.73112797  0.26762183     1.49700
Zn389      Zn  0.72089739  0.74707202  0.25782970     1.49400
Zn390      Zn  0.75891540  0.77693015  0.25358955     1.49100
Zn391      Zn  0.75272528  0.74076155  0.22131659     1.49500
O392        O  0.74973906  0.74884075  0.25008035    -1.84500
O393        O  0.74821865  0.71576946  0.28736263    -0.75100
O394        O  0.71007872  0.77404826  0.26846201    -0.74900
O395        O  0.78276718  0.77889676  0.27258203    -0.74400
O396        O  0.71680568  0.72607472  0.27981309    -0.75100
O397        O  0.78761243  0.74727818  0.28361954    -0.74700
O398        O  0.73688508  0.79449181  0.26538527    -0.75300
O399        O  0.76429386  0.76387139  0.20458454    -0.74700
O400        O  0.70366719  0.73810181  0.23405257    -0.75500
O401        O  0.76784685  0.78907953  0.22700447    -0.74800
O402        O  0.72562385  0.73204676  0.20892204    -0.75300
O403        O  0.77258290  0.71750405  0.21856070    -0.75200
O404        O  0.78156884  0.71036020  0.25049472    -0.75000
C405        C  0.72896797  0.71503596  0.29017314     0.76800
C406        C  0.71841915  0.79149119  0.27058696     0.77300
C407        C  0.79244079  0.76615176  0.28355520     0.76200
C408        C  0.76956612  0.78207579  0.20895254     0.76600
C409        C  0.70744668  0.73215757  0.21590305     0.77700
C410        C  0.78278137  0.70700801  0.23133882     0.76800
C411        C  0.38789310  0.56821773  0.33429026     0.79900
N412        N  0.38022593  0.58745650  0.33178310    -0.78400
C413        C  0.37134810  0.59278939  0.31367484     0.82300
N414        N  0.36992806  0.57883127  0.29838467    -0.78400
C415        C  0.37709684  0.55961056  0.30091677     0.82400
N416        N  0.38607199  0.55454294  0.31881407    -0.80100
C417        C  0.36359753  0.41448691  0.18664111     0.79900
N418        N  0.36127802  0.43082388  0.19923044    -0.78400
C419        C  0.36927521  0.44923224  0.19460242     0.82300
N420        N  0.37992052  0.45130880  0.17709250    -0.78400
C421        C  0.38272523  0.43536790  0.16412415     0.82400
N422        N  0.37446190  0.41673149  0.16886759    -0.80100
Zn423      Zn  0.51927080  0.48127532  0.98547273     1.49700
Zn424      Zn  0.47326045  0.49107741  0.99904503     1.49400
Zn425      Zn  0.50951272  0.49679517  0.03129551     1.49100
Zn426      Zn  0.50562403  0.52778546  0.99432938     1.49500
O427        O  0.50195675  0.49916988  0.00243249    -1.84500
O428        O  0.50219882  0.45974939  0.97040687    -0.75100
O429        O  0.46092114  0.48098718  0.02580659    -0.74900
O430        O  0.53363297  0.47814883  0.03469362    -0.74400
O431        O  0.47045006  0.46812298  0.97881160    -0.75100
O432        O  0.54049500  0.46724651  0.00324584    -0.74700
O433        O  0.48659712  0.48465848  0.04758749    -0.75300
O434        O  0.51611543  0.54532697  0.01753249    -0.74700
O435        O  0.45669260  0.51442866  0.98763282    -0.75500
O436        O  0.51721203  0.52406589  0.04386191    -0.74800
O437        O  0.47899591  0.53982835  0.98437503    -0.75300
O438        O  0.52609505  0.53001599  0.97154313    -0.75200
O439        O  0.53475552  0.49801417  0.96428376    -0.75000
C440        C  0.48295428  0.45698471  0.96893892     0.76800
C441        C  0.46839696  0.47908627  0.04369211     0.77300
C442        C  0.54434274  0.46759126  0.02236034     0.76200
C443        C  0.51972378  0.54182223  0.03632366     0.76600
C444        C  0.46101264  0.53267391  0.98243268     0.77700
C445        C  0.53620573  0.51716999  0.96099694     0.76800
Zn446      Zn  0.97202947  0.98791326  0.49415159     1.49700
Zn447      Zn  0.00331556  0.02452957  0.49142248     1.49400
Zn448      Zn  0.00789632  0.99215952  0.52791927     1.49100
Zn449      Zn  0.01903708  0.97900992  0.48219015     1.49500
O450        O  0.00057378  0.99576325  0.49893773    -1.84500
O451        O  0.95531171  0.01109782  0.48203518    -0.75100
O452        O  0.01397778  0.04075445  0.51492713    -0.74900
O453        O  0.98366724  0.98138190  0.54367188    -0.74400
O454        O  0.97694843  0.03710730  0.48136509    -0.75100
O455        O  0.95887506  0.97857937  0.52061780    -0.74700
O456        O  0.01812739  0.01879400  0.54040799    -0.75300
O457        O  0.03900382  0.96315547  0.49985164    -0.74700
O458        O  0.02394894  0.02810193  0.46920082    -0.75500
O459        O  0.03053746  0.97148188  0.53160523    -0.74800
O460        O  0.03573799  0.99691097  0.46307357    -0.75300
O461        O  0.00273942  0.95850583  0.46543983    -0.75200
O462        O  0.97047836  0.96465277  0.47400170    -0.75000
C463        C  0.95930794  0.02970370  0.47795646     0.76800
C464        C  0.01969136  0.03676549  0.53306385     0.77300
C465        C  0.96545134  0.97653604  0.53884445     0.76200
C466        C  0.04161948  0.96153330  0.51908939     0.76600
C467        C  0.03585953  0.01609288  0.45965541     0.77700
C468        C  0.98371172  0.95462647  0.46384634     0.76800
C469        C  0.33606203  0.88624344  0.43466999     0.79900
N470        N  0.33273379  0.87720319  0.41614264    -0.78400
C471        C  0.31457491  0.86770737  0.41239989     0.82300
N472        N  0.30005734  0.86716688  0.42715022    -0.78400
C473        C  0.30331145  0.87575463  0.44564461     0.82400
N474        N  0.32127857  0.88529634  0.44923041    -0.80100
C475        C  0.18404271  0.85803167  0.58690300     0.79900
N476        N  0.19829800  0.85932197  0.57190780    -0.78400
C477        C  0.19444876  0.86915498  0.55418110     0.82300
N478        N  0.17587372  0.87769200  0.55131441    -0.78400
C479        C  0.16134503  0.87685377  0.56610909     0.82400
N480        N  0.16545000  0.86709585  0.58410884    -0.80100
C481        C  0.43237162  0.34210289  0.87918582     0.79900
N482        N  0.44703010  0.32746478  0.87849270    -0.78400
C483        C  0.44311653  0.30877998  0.87058787     0.82300
N484        N  0.42430685  0.30478385  0.86314502    -0.78400
C485        C  0.40944489  0.31920130  0.86334747     0.82400
N486        N  0.41340378  0.33800888  0.87151579    -0.80100
C487        C  0.58489633  0.18919048  0.86321651     0.79900
N488        N  0.58186374  0.17116001  0.87329694    -0.78400
C489        C  0.56367564  0.16762974  0.88294835     0.82300
N490        N  0.54888320  0.18216885  0.88235739    -0.78400
C491        C  0.55180481  0.20002060  0.87246694     0.82400
N492        N  0.56978713  0.20333163  0.86301154    -0.80100
C493        C  0.08434589  0.17766180  0.63891241     0.79900
N494        N  0.08106127  0.16006344  0.62822068    -0.78400
C495        C  0.06399794  0.15808811  0.61647262     0.82300
N496        N  0.05056564  0.17383649  0.61544629    -0.78400
C497        C  0.05376522  0.19142664  0.62578031     0.82400
N498        N  0.07065791  0.19321153  0.63752748    -0.80100
C499        C  0.91444428  0.31321827  0.63416222     0.79900
N500        N  0.91768159  0.33166806  0.62501196    -0.78400
C501        C  0.93577150  0.33549549  0.61536351     0.82300
N502        N  0.95043862  0.32079748  0.61506117    -0.78400
C503        C  0.94741268  0.30249009  0.62415871     0.82400
N504        N  0.92941176  0.29889312  0.63361524    -0.80100
C505        C  0.69430397  0.37909353  0.09263993     0.79900
N506        N  0.70836494  0.38001442  0.07743808    -0.78400
C507        C  0.70377703  0.38807847  0.05899717     0.82300
N508        N  0.68467694  0.39522619  0.05568086    -0.78400
C509        C  0.67037385  0.39466543  0.07070243     0.82400
N510        N  0.67516326  0.38655738  0.08927362    -0.80100
C511        C  0.81439058  0.36829950  0.91160473     0.79900
N512        N  0.83388674  0.37542218  0.91361062    -0.78400
C513        C  0.83982706  0.38446154  0.93143892     0.82300
N514        N  0.82628787  0.38645104  0.94702599    -0.78400
C515        C  0.80683086  0.37979078  0.94503000     0.82400
N516        N  0.80110527  0.37069911  0.92735659    -0.80100
Zn517      Zn  0.76731457  0.23289935  0.73110223     1.49700
Zn518      Zn  0.75819441  0.27875348  0.74580617     1.49400
Zn519      Zn  0.72150538  0.24725705  0.73901118     1.49100
Zn520      Zn  0.75243854  0.24153141  0.77689328     1.49500
O521        O  0.74987721  0.25010780  0.74822825    -1.84500
O522        O  0.78615244  0.25036841  0.71390549    -0.75100
O523        O  0.73510948  0.29579896  0.73466574    -0.74900
O524        O  0.71866941  0.22601568  0.71676343    -0.74400
O525        O  0.78143486  0.28179220  0.72582075    -0.75100
O526        O  0.75037390  0.21499885  0.71226761    -0.74700
O527        O  0.70993773  0.27398423  0.72852408    -0.75300
O528        O  0.72549253  0.23140355  0.78779586    -0.74700
O529        O  0.76683070  0.29062227  0.77314282    -0.75500
O530        O  0.70404212  0.23748879  0.76225029    -0.74800
O531        O  0.76153411  0.26508133  0.79479421    -0.75300
O532        O  0.77327703  0.21891751  0.78011162    -0.75200
O533        O  0.78484357  0.21430903  0.74853539    -0.75000
C534        C  0.79047785  0.26936069  0.71387907     0.76800
C535        C  0.71719595  0.29202975  0.72810733     0.77300
C536        C  0.73138943  0.21414918  0.70805884     0.76200
C537        C  0.70755605  0.23120867  0.78032661     0.76600
C538        C  0.76700310  0.28342106  0.79123832     0.77700
C539        C  0.78522926  0.21006541  0.76754605     0.76800
C540        C  0.08348586  0.81333572  0.86368009     0.79900
N541        N  0.07895601  0.83229481  0.87112291    -0.78400
C542        C  0.05969839  0.83650801  0.87799260     0.82300
N543        N  0.04517835  0.82169492  0.87718645    -0.78400
C544        C  0.04963257  0.80283775  0.86999978     0.82400
N545        N  0.06874541  0.79879260  0.86340829    -0.80100
C546        C  0.90838433  0.68381289  0.86728337     0.79900
N547        N  0.92388787  0.69751030  0.86747260    -0.78400
C548        C  0.94268292  0.69234722  0.87413398     0.82300
N549        N  0.94616231  0.67309975  0.88082224    -0.78400
C550        C  0.93073727  0.65920806  0.88135633     0.82400
N551        N  0.91176113  0.66457295  0.87456446    -0.80100
C552        C  0.87152529  0.08978372  0.80944979     0.79900
N553        N  0.87115661  0.07512571  0.79478699    -0.78400
C554        C  0.87914253  0.05641830  0.79807745     0.82300
N555        N  0.88773613  0.05232783  0.81636838    -0.78400
C556        C  0.88848671  0.06661234  0.83140888     0.82400
N557        N  0.88021245  0.08550411  0.82797051    -0.80100
C558        C  0.86225255  0.91288903  0.68187676     0.79900
N559        N  0.87097666  0.91528458  0.66307911    -0.78400
C560        C  0.87949295  0.93361180  0.65790097     0.82300
N561        N  0.87937895  0.94925228  0.67156228    -0.78400
C562        C  0.87100644  0.94685762  0.69032592     0.82400
N563        N  0.86249075  0.92872718  0.69522416    -0.80100
Zn564      Zn  0.77445975  0.74866260  0.74289640     1.49700
Zn565      Zn  0.74362698  0.74262339  0.78005505     1.49400
Zn566      Zn  0.73819275  0.78082090  0.75047118     1.49100
Zn567      Zn  0.72813199  0.73555797  0.73411022     1.49500
O568        O  0.74608520  0.75190329  0.75177518    -1.84500
O569        O  0.79207401  0.73698409  0.76563953    -0.75100
O570        O  0.73347935  0.76503322  0.79844297    -0.74900
O571        O  0.76135143  0.79782927  0.73944859    -0.74400
O572        O  0.77022058  0.73180907  0.79105822    -0.75100
O573        O  0.78618279  0.77555901  0.73323421    -0.74700
O574        O  0.72935642  0.79176506  0.77807020    -0.75300
O575        O  0.70859450  0.75396737  0.71890583    -0.74700
O576        O  0.72286342  0.72051405  0.78252226    -0.75500
O577        O  0.71459826  0.78498431  0.73120823    -0.74800
O578        O  0.71092031  0.71611886  0.75109561    -0.75300
O579        O  0.74446008  0.71948454  0.71288816    -0.75200
O580        O  0.77624410  0.72954872  0.71888034    -0.75000
C581        C  0.78817509  0.73071177  0.78368705     0.76800
C582        C  0.72806737  0.78348704  0.79563400     0.77300
C583        C  0.77915873  0.79369968  0.73276918     0.76200
C584        C  0.70470482  0.77303686  0.71950233     0.76600
C585        C  0.71071532  0.71186921  0.77011379     0.77700
C586        C  0.76346192  0.71914790  0.70857546     0.76800
Zn587      Zn  0.99572522  0.52927761  0.00728500     1.49700
Zn588      Zn  0.99295537  0.49678655  0.97092032     1.49400
Zn589      Zn  0.02892286  0.49319628  0.00365368     1.49100
Zn590      Zn  0.98308017  0.48246741  0.01676264     1.49500
O591        O  0.00010460  0.50045971  0.99976286    -1.84500
O592        O  0.98389350  0.54533846  0.98354564    -0.75100
O593        O  0.01691765  0.48633087  0.95485795    -0.74900
O594        O  0.04519075  0.51798347  0.01222546    -0.74400
O595        O  0.98272317  0.52295017  0.95807855    -0.75100
O596        O  0.02231649  0.54268838  0.01662857    -0.74700
O597        O  0.04124181  0.48117089  0.97789850    -0.75300
O598        O  0.00065803  0.46343464  0.03395694    -0.74700
O599        O  0.97080848  0.47568690  0.96759355    -0.75500
O600        O  0.03237720  0.47181955  0.02554913    -0.74800
O601        O  0.96387492  0.46531320  0.99912510    -0.75300
O602        O  0.96596125  0.49936153  0.03625067    -0.75200
O603        O  0.97496850  0.53149356  0.02996177    -0.75000
C604        C  0.97956461  0.54082780  0.96509709     0.76800
C605        C  0.03463347  0.47995914  0.95964749     0.77300
C606        C  0.04069433  0.53623965  0.01734696     0.76200
C607        C  0.01989678  0.46112037  0.03592063     0.76600
C608        C  0.96078791  0.46443366  0.97987962     0.77700
C609        C  0.96436339  0.51845834  0.03975442     0.76800
C610        C  0.36151616  0.07937050  0.67894805     0.79900
N611        N  0.36183290  0.06382022  0.69266586    -0.78400
C612        C  0.37224229  0.04641479  0.68886570     0.82300
N613        N  0.38254541  0.04461358  0.67110589    -0.78400
C614        C  0.38265641  0.05985898  0.65708813     0.82400
N615        N  0.37206738  0.07740568  0.66102085    -0.80100
C616        C  0.38953104  0.93239336  0.83344012     0.79900
N617        N  0.39083540  0.94486039  0.81697015    -0.78400
C618        C  0.38154688  0.94021004  0.79919143     0.82300
N619        N  0.37057025  0.92280898  0.79789660    -0.78400
C620        C  0.36881635  0.91001592  0.81415123     0.82400
N621        N  0.37843387  0.91477995  0.83205675    -0.80100
C622        C  0.18411992  0.63094332  0.09122761     0.79900
N623        N  0.19970426  0.63046053  0.07753616    -0.78400
C624        C  0.19655006  0.62410886  0.05814228     0.82300
N625        N  0.17774541  0.61782668  0.05246869    -0.78400
C626        C  0.16197544  0.61765374  0.06593437     0.82400
N627        N  0.16514244  0.62448643  0.08541983    -0.80100
C628        C  0.31671256  0.63328548  0.91817850     0.79900
N629        N  0.30284239  0.63264701  0.93354530    -0.78400
C630        C  0.30743758  0.62431884  0.95181369     0.82300
N631        N  0.32621587  0.61637369  0.95487897    -0.78400
C632        C  0.34025761  0.61629497  0.93958311     0.82400
N633        N  0.33550592  0.62476228  0.92110184    -0.80100
Zn634      Zn  0.27913819  0.74540141  0.76312749     1.49700
Zn635      Zn  0.24191873  0.77636720  0.75607123     1.49400
Zn636      Zn  0.24818145  0.73782384  0.72614707     1.49100
Zn637      Zn  0.23331092  0.73102795  0.77233833     1.49500
O638        O  0.25058021  0.74766977  0.75439076    -1.84500
O639        O  0.29027023  0.77237206  0.77322296    -0.75100
O640        O  0.23316130  0.78721263  0.72825751    -0.74900
O641        O  0.27533525  0.72730745  0.71526445    -0.74400
O642        O  0.26449640  0.79374051  0.76797166    -0.75100
O643        O  0.29678979  0.73385782  0.74066514    -0.74700
O644        O  0.23778436  0.76041508  0.70790684    -0.75300
O645        O  0.21709570  0.71031596  0.75594917    -0.74700
O646        O  0.21824266  0.77981477  0.77557625    -0.75500
O647        O  0.22789552  0.71459576  0.72408606    -0.74800
O648        O  0.21359519  0.74878502  0.78838574    -0.75300
O649        O  0.25047397  0.71531637  0.79260384    -0.75200
O650        O  0.28204551  0.72583124  0.78643180    -0.75000
C651        C  0.28246059  0.79014188  0.77452369     0.76800
C652        C  0.23219904  0.77887840  0.71064772     0.77300
C653        C  0.29322515  0.72674293  0.72289281     0.76200
C654        C  0.21671422  0.70539743  0.73708849     0.76600
C655        C  0.20911543  0.76773149  0.78777695     0.77700
C656        C  0.26953065  0.71488974  0.79644384     0.76800
C657        C  0.30529370  0.68946572  0.83430399    -0.11200
C658        C  0.29184948  0.67674448  0.84512558     0.06000
C659        C  0.27123227  0.67605755  0.83918821    -0.10000
C660        C  0.26404853  0.68831898  0.82333504    -0.11600
C661        C  0.27733772  0.70145481  0.81286231    -0.01400
C662        C  0.29811236  0.70169576  0.81832413    -0.10500
C663        C  0.29875288  0.66527928  0.86344391     0.06000
H664        H  0.26054647  0.66612389  0.84695940     0.07900
H665        H  0.24802423  0.68758861  0.81938886     0.11400
H666        H  0.30877741  0.71161412  0.81050138     0.11600
H667        H  0.32120261  0.69047794  0.83862246     0.07900
C668        C  0.31785422  0.65542096  0.86422251    -0.11200
C669        C  0.32391292  0.64480797  0.88187071    -0.10500
C670        C  0.31095411  0.64393295  0.89898993    -0.01400
C671        C  0.29197033  0.65394814  0.89804849    -0.11600
C672        C  0.28603361  0.66448935  0.88064152    -0.10000
H673        H  0.32798090  0.65574322  0.85114771     0.07900
H674        H  0.33864216  0.63732734  0.88210700     0.11600
H675        H  0.28157498  0.65391097  0.91091341     0.11300
H676        H  0.27149271  0.67234378  0.88081199     0.07900
C677        C  0.25648192  0.61908146  0.97770377    -0.11200
C678        C  0.26120661  0.62383037  0.99812797     0.06000
C679        C  0.28162596  0.62816194  0.00324855    -0.10000
C680        C  0.29686353  0.62781625  0.98828262    -0.11600
C681        C  0.29185149  0.62364874  0.96790091    -0.01400
C682        C  0.27158639  0.61929923  0.96272413    -0.10500
C683        C  0.24480796  0.62438010  0.01384631     0.06000
H684        H  0.28581328  0.63221374  0.01871413     0.07900
H685        H  0.31243589  0.63139049  0.99249978     0.11400
H686        H  0.26747565  0.61581107  0.94707798     0.11600
H687        H  0.24110904  0.61506559  0.97322651     0.07900
C688        C  0.22494711  0.63060214  0.00854935    -0.11200
C689        C  0.20928559  0.63033053  0.02296485    -0.10500
C690        C  0.21323529  0.62443877  0.04313861    -0.01400
C691        C  0.23308893  0.61879094  0.04873707    -0.11600
C692        C  0.24869603  0.61850651  0.03416243    -0.10000
H693        H  0.22144897  0.63582404  0.99326927     0.07900
H694        H  0.19410771  0.63503797  0.01842289     0.11600
H695        H  0.23639090  0.61408134  0.06424444     0.11300
H696        H  0.26367622  0.61331236  0.03875874     0.07900
C697        C  0.34416842  0.85773956  0.82170278    -0.11200
C698        C  0.32985244  0.85769297  0.80565439     0.06000
C699        C  0.32831519  0.87497952  0.79314936    -0.10000
C700        C  0.34080795  0.89179800  0.79630229    -0.11600
C701        C  0.35529915  0.89197092  0.81211128    -0.01400
C702        C  0.35670235  0.87487241  0.82503333    -0.10500
C703        C  0.31701595  0.83963773  0.80081480     0.06000
H704        H  0.31775437  0.87532393  0.78043993     0.07900
H705        H  0.33911517  0.90470978  0.78612090     0.11400
H706        H  0.36772114  0.87457745  0.83734292     0.11600
H707        H  0.34564868  0.84457899  0.83159147     0.07900
C708        C  0.32554762  0.81999628  0.79960713    -0.11200
C709        C  0.31427623  0.80377799  0.79134275    -0.10500
C710        C  0.29426701  0.80692503  0.78416023    -0.01400
C711        C  0.28543151  0.82632839  0.78649569    -0.11600
C712        C  0.29662651  0.84243172  0.79478482    -0.10000
H713        H  0.34123935  0.81740556  0.80407490     0.07900
H714        H  0.32141913  0.78892137  0.79008806     0.11600
H715        H  0.26993536  0.82922445  0.78155999     0.11300
H716        H  0.28951340  0.85732137  0.79589118     0.07900
C717        C  0.38476651  0.99625091  0.71471421    -0.11200
C718        C  0.37711458  0.99957735  0.73446414     0.06000
C719        C  0.36721963  0.01808368  0.73890323    -0.10000
C720        C  0.36529488  0.03313716  0.72398918    -0.11600
C721        C  0.37329729  0.03002498  0.70432244    -0.01400
C722        C  0.38293377  0.01135969  0.69979079    -0.10500
C723        C  0.37957105  0.98397258  0.75057116     0.06000
H724        H  0.36089927  0.02089373  0.75393988     0.07900
H725        H  0.35777175  0.04731320  0.72798417     0.11400
H726        H  0.38924755  0.00847077  0.68476914     0.11600
H727        H  0.39255835  0.98215515  0.71095135     0.07900
C728        C  0.37574243  0.96325624  0.74650301    -0.11200
C729        C  0.37677601  0.94883886  0.76220589    -0.10500
C730        C  0.38191902  0.95490075  0.78213719    -0.01400
C731        C  0.38649207  0.97550065  0.78596469    -0.11600
C732        C  0.38524455  0.98988586  0.77037031    -0.10000
H733        H  0.37131156  0.95832645  0.73134967     0.07900
H734        H  0.37330014  0.93302895  0.75882173     0.11600
H735        H  0.39048171  0.98065797  0.80116751     0.11300
H736        H  0.38860425  0.00570613  0.77382667     0.07900
C737        C  0.12201917  0.59361245  0.03177778    -0.11200
C738        C  0.10662001  0.58826452  0.04563877     0.06000
C739        C  0.10857600  0.59429493  0.06618710    -0.10000
C740        C  0.12620434  0.60455344  0.07289760    -0.11600
C741        C  0.14205476  0.60908476  0.05909994    -0.01400
C742        C  0.13940473  0.60394340  0.03836372    -0.10500
C743        C  0.08945090  0.57519318  0.03865569     0.06000
H744        H  0.09689030  0.59029491  0.07718443     0.07900
H745        H  0.12771472  0.60828660  0.08893956     0.11400
H746        H  0.15106912  0.60737743  0.02715500     0.11600
H747        H  0.12076956  0.58941014  0.01581656     0.07900
C748        C  0.06902967  0.58044414  0.04256852    -0.11200
C749        C  0.05308398  0.56806367  0.03533618    -0.10500
C750        C  0.05731017  0.55000100  0.02441922    -0.01400
C751        C  0.07778761  0.54478788  0.02069397    -0.11600
C752        C  0.09361677  0.55728318  0.02759155    -0.10000
H753        H  0.06543202  0.59424059  0.05096401     0.07900
H754        H  0.03747828  0.57247006  0.03852490     0.11600
H755        H  0.08162398  0.53102767  0.01234428     0.11300
H756        H  0.10922677  0.55281222  0.02447066     0.07900
C757        C  0.83362387  0.87509681  0.71472714    -0.11200
C758        C  0.82898569  0.85939659  0.70096112     0.06000
C759        C  0.83664442  0.86053549  0.68088432    -0.10000
C760        C  0.84798777  0.87762655  0.67453074    -0.11600
C761        C  0.85192837  0.89370801  0.68823677    -0.01400
C762        C  0.84492256  0.89193891  0.70850227    -0.10500
C763        C  0.81571998  0.84236491  0.70783025     0.06000
H764        H  0.83330501  0.84855668  0.66997983     0.07900
H765        H  0.85320057  0.87847726  0.65885367     0.11400
H766        H  0.84784802  0.90378255  0.71966887     0.11600
H767        H  0.82835314  0.87441734  0.73040461     0.07900
C768        C  0.82090885  0.82192716  0.70392864    -0.11200
C769        C  0.80910769  0.80604694  0.71209142    -0.10500
C770        C  0.79176918  0.81034811  0.72406945    -0.01400
C771        C  0.78630371  0.83081188  0.72740275    -0.11600
C772        C  0.79816647  0.84660410  0.71944592    -0.10000
H773        H  0.83439065  0.81825224  0.69508203     0.07900
H774        H  0.81356290  0.79041334  0.70904561     0.11600
H775        H  0.77297898  0.83466114  0.73641603     0.11300
H776        H  0.79365293  0.86223055  0.72246983     0.07900
C777        C  0.87051355  0.03062507  0.74702650    -0.11200
C778        C  0.87563267  0.01030950  0.75147734     0.06000
C779        C  0.88215177  0.00526908  0.77127133    -0.10000
C780        C  0.88348936  0.02026923  0.78636429    -0.11600
C781        C  0.87818240  0.04059204  0.78199328    -0.01400
C782        C  0.87169774  0.04561033  0.76215108    -0.10500
C783        C  0.87401815  0.99434729  0.73558264     0.06000
H784        H  0.88638578  0.98973245  0.77502151     0.07900
H785        H  0.88852722  0.01588915  0.80148861     0.11400
H786        H  0.86751011  0.06112453  0.75827412     0.11600
H787        H  0.86526830  0.03484873  0.73192677     0.07900
C788        C  0.86515393  0.97542649  0.74024192    -0.11200
C789        C  0.86390380  0.96018093  0.72542959    -0.10500
C790        C  0.87160096  0.96347855  0.70563230    -0.01400
C791        C  0.88026069  0.98252971  0.70090286    -0.11600
C792        C  0.88140583  0.99784323  0.71573863    -0.10000
H793        H  0.85907865  0.97246186  0.75534647     0.07900
H794        H  0.85705535  0.94572947  0.72960871     0.11600
H795        H  0.88632762  0.98556358  0.68581491     0.11300
H796        H  0.88843176  0.01228590  0.71182401     0.07900
C797        C  0.92699230  0.61284767  0.91562533    -0.11200
C798        C  0.94621756  0.60375668  0.91257175     0.06000
C799        C  0.95923727  0.61185517  0.89757775    -0.10000
C800        C  0.95369343  0.62936695  0.88673271    -0.11600
C801        C  0.93481571  0.63889122  0.89028930    -0.01400
C802        C  0.92123341  0.63014318  0.90438419    -0.10500
C803        C  0.95346313  0.58689674  0.92591239     0.06000
H804        H  0.97417421  0.60525887  0.89499056     0.07900
H805        H  0.96444280  0.63586281  0.87596485     0.11400
H806        H  0.90668554  0.63733998  0.90753396     0.11600
H807        H  0.91663389  0.60682964  0.92702761     0.07900
C808        C  0.95189416  0.58855355  0.94726186    -0.11200
C809        C  0.96045248  0.57365833  0.95997400    -0.10500
C810        C  0.97046072  0.55659036  0.95160650    -0.01400
C811        C  0.97150745  0.55464675  0.93023333    -0.11600
C812        C  0.96328376  0.56974266  0.91753059    -0.10000
H813        H  0.94459831  0.60171796  0.95413419     0.07900
H814        H  0.95921896  0.57549287  0.97637345     0.11600
H815        H  0.97905439  0.54164644  0.92332345     0.11300
H816        H  0.96466624  0.56807282  0.90112496     0.07900
C817        C  0.86979354  0.71542641  0.83833662    -0.11200
C818        C  0.85382963  0.70158923  0.83515695     0.06000
C819        C  0.85487094  0.68219553  0.84435026    -0.10000
C820        C  0.87226282  0.67638259  0.85549995    -0.11600
C821        C  0.88870392  0.69000927  0.85781271    -0.01400
C822        C  0.88689404  0.70979113  0.84956672    -0.10500
C823        C  0.83675995  0.70748759  0.82151366     0.06000
H824        H  0.84263731  0.67129699  0.84220324     0.07900
H825        H  0.87308167  0.66110676  0.86175422     0.11400
H826        H  0.89901555  0.72090065  0.85118480     0.11600
H827        H  0.86918196  0.73060810  0.83180169     0.07900
C828        C  0.81636858  0.70531478  0.82767523    -0.11200
C829        C  0.80054334  0.71267547  0.81531090    -0.10500
C830        C  0.80481917  0.72211366  0.79643773    -0.01400
C831        C  0.82522191  0.72358114  0.79003056    -0.11600
C832        C  0.84098838  0.71644581  0.80246307    -0.10000
H833        H  0.81272911  0.69852802  0.84231502     0.07900
H834        H  0.78497055  0.71116860  0.82063804     0.11600
H835        H  0.82906992  0.73062754  0.77557037     0.11300
H836        H  0.85659654  0.71809177  0.79726202     0.07900
C837        C  0.12681691  0.78189376  0.84207548    -0.11200
C838        C  0.14165276  0.79663564  0.83741978     0.06000
C839        C  0.13762446  0.81718975  0.84248888    -0.10000
C840        C  0.11898858  0.82280677  0.85156450    -0.11600
C841        C  0.10403843  0.80797188  0.85568325    -0.01400
C842        C  0.10841290  0.78743948  0.85111827    -0.10500
C843        C  0.16053992  0.79036264  0.82628319     0.06000
H844        H  0.14879330  0.82894143  0.83931642     0.07900
H845        H  0.11612417  0.83874469  0.85491743     0.11400
H846        H  0.09739030  0.77549617  0.85412070     0.11600
H847        H  0.12904368  0.76601256  0.83806720     0.07900
C848        C  0.16932634  0.77104842  0.82977614    -0.11200
C849        C  0.18518270  0.76383010  0.81743987    -0.10500
C850        C  0.19296551  0.77586157  0.80148951    -0.01400
C851        C  0.18499744  0.79561434  0.79866810    -0.11600
C852        C  0.16890972  0.80274719  0.81085621    -0.10000
H853        H  0.16371367  0.76128498  0.84187642     0.07900
H854        H  0.19122536  0.74871063  0.82030339     0.11600
H855        H  0.19075563  0.80534563  0.78660309     0.11300
H856        H  0.16248655  0.81761448  0.80758672     0.07900
C857        C  0.02534774  0.75078388  0.87455601    -0.11200
C858        C  0.00458821  0.75517916  0.87130422     0.06000
C859        C  0.99891986  0.77553819  0.86719374    -0.10000
C860        C  0.01351048  0.79108837  0.86691869    -0.11600
C861        C  0.03414901  0.78654644  0.87012966    -0.01400
C862        C  0.03997195  0.76625107  0.87370746    -0.10500
C863        C  0.98891443  0.73871825  0.87248286     0.06000
H864        H  0.98321977  0.77952847  0.86403384     0.07900
H865        H  0.00870904  0.80662099  0.86388818     0.11400
H866        H  0.05581772  0.76241430  0.87640947     0.11600
H867        H  0.03034647  0.73546839  0.87818506     0.07900
C868        C  0.99357098  0.71846160  0.86679643    -0.11200
C869        C  0.97875239  0.70312636  0.86796804    -0.10500
C870        C  0.95888130  0.70786962  0.87428492    -0.01400
C871        C  0.95416440  0.72795581  0.87998147    -0.11600
C872        C  0.96905862  0.74313356  0.87939379    -0.10000
H873        H  0.00852423  0.71446186  0.86103329     0.07900
H874        H  0.98261167  0.68773192  0.86329083     0.11600
H875        H  0.93893023  0.73187900  0.88509334     0.11300
H876        H  0.96495526  0.75830243  0.88450671     0.07900
C877        C  0.82986251  0.17329801  0.76965855    -0.11200
C878        C  0.82682640  0.16342761  0.78852833     0.06000
C879        C  0.81048790  0.16982986  0.80093369    -0.10000
C880        C  0.79719939  0.18525470  0.79434015    -0.11600
C881        C  0.79983241  0.19448194  0.77511008    -0.01400
C882        C  0.81645538  0.18846966  0.76297001    -0.10500
C883        C  0.83969372  0.14553503  0.79433526     0.06000
H884        H  0.80751496  0.16243469  0.81541916     0.07900
H885        H  0.78451781  0.18954684  0.80405314     0.11400
H886        H  0.81910252  0.19547384  0.74821929     0.11600
H887        H  0.84253422  0.16914234  0.75988221     0.07900
C888        C  0.84585464  0.13165320  0.77919982    -0.11200
C889        C  0.85680432  0.11417906  0.78425911    -0.10500
C890        C  0.86184616  0.10977198  0.80468627    -0.01400
C891        C  0.85625778  0.12385975  0.81991064    -0.11600
C892        C  0.84522313  0.14156856  0.81478219    -0.10000
H893        H  0.84161927  0.13387128  0.76337557     0.07900
H894        H  0.86090442  0.10382708  0.77201624     0.11600
H895        H  0.85989398  0.12093409  0.83577185     0.11300
H896        H  0.84090091  0.15206322  0.82681419     0.07900
C897        C  0.88661654  0.41802337  0.92890696    -0.11200
C898        C  0.89688226  0.41223078  0.94693910     0.06000
C899        C  0.88954389  0.39524343  0.95784592    -0.10000
C900        C  0.87158284  0.38542937  0.95191280    -0.11600
C901        C  0.86079761  0.39195239  0.93462635    -0.01400
C902        C  0.86876486  0.40788724  0.92275543    -0.10500
C903        C  0.91408014  0.42470608  0.95529005     0.06000
H904        H  0.89729928  0.38992800  0.97142905     0.07900
H905        H  0.86565712  0.37315725  0.96128907     0.11400
H906        H  0.86047642  0.41336582  0.90954397     0.11600
H907        H  0.89167242  0.43110834  0.92017663     0.07900
C908        C  0.92813506  0.43443408  0.94228760    -0.11200
C909        C  0.94342179  0.44708610  0.95028105    -0.10500
C910        C  0.94512950  0.45027314  0.97149575    -0.01400
C911        C  0.93138853  0.44020959  0.98451347    -0.11600
C912        C  0.91602959  0.42770042  0.97652814    -0.10000
H913        H  0.92733057  0.43230007  0.92590728     0.07900
H914        H  0.95385969  0.45446768  0.93979417     0.11600
H915        H  0.93218215  0.44237093  0.00089669     0.11300
H916        H  0.90528685  0.42085817  0.98705773     0.07900
C917        C  0.81371928  0.34261585  0.85925438    -0.11200
C918        C  0.79404499  0.33400434  0.85894001     0.06000
C919        C  0.78105216  0.33740447  0.87563958    -0.10000
C920        C  0.78761513  0.34885319  0.89238532    -0.11600
C921        C  0.80746001  0.35713158  0.89302778    -0.01400
C922        C  0.82040426  0.35398384  0.87617034    -0.10500
C923        C  0.78710465  0.32115967  0.84151692     0.06000
H924        H  0.76572650  0.33121935  0.87573042     0.07900
H925        H  0.77709728  0.35096060  0.90497972     0.11400
H926        H  0.83574901  0.36009594  0.87612913     0.11600
H927        H  0.82410446  0.34013254  0.84661815     0.07900
C928        C  0.79053980  0.32727880  0.82123428    -0.11200
C929        C  0.78381595  0.31517785  0.80490576    -0.10500
C930        C  0.77375447  0.29654072  0.80850250    -0.01400
C931        C  0.77036141  0.29043618  0.82881884    -0.11600
C932        C  0.77684653  0.30265016  0.84511139    -0.10000
H933        H  0.79821653  0.34155863  0.81801200     0.07900
H934        H  0.78667619  0.32033376  0.78945276     0.11600
H935        H  0.76262547  0.27621310  0.83215520     0.11300
H936        H  0.77410446  0.29745676  0.86057768     0.07900
C937        C  0.78409811  0.39140440  0.99710729    -0.11200
C938        C  0.76352990  0.38622660  0.99406558     0.06000
C939        C  0.75730826  0.37910719  0.97483792    -0.10000
C940        C  0.77137581  0.37705032  0.95897097    -0.11600
C941        C  0.79198725  0.38218567  0.96193453    -0.01400
C942        C  0.79818810  0.38949350  0.98116398    -0.10500
C943        C  0.74859443  0.38770698  0.01096183     0.06000
H944        H  0.74159279  0.37475642  0.97218160     0.07900
H945        H  0.76605371  0.37138131  0.94437640     0.11400
H946        H  0.81394041  0.39360087  0.98395931     0.11600
H947        H  0.78923638  0.39705304  0.01178170     0.07900
C948        C  0.75343092  0.38011639  0.03039811    -0.11200
C949        C  0.73893286  0.38041911  0.04603010    -0.10500
C950        C  0.71931168  0.38841721  0.04257275    -0.01400
C951        C  0.71463483  0.39637565  0.02320312    -0.11600
C952        C  0.72912568  0.39598392  0.00755091    -0.10000
H953        H  0.76826144  0.37345517  0.03335159     0.07900
H954        H  0.74306458  0.37414376  0.06075568     0.11600
H955        H  0.69972014  0.40273549  0.02004523     0.11300
H956        H  0.72511032  0.40212823  0.99273399     0.07900
C957        C  0.87467259  0.28353116  0.66374906    -0.11200
C958        C  0.85808000  0.29702752  0.66428488     0.06000
C959        C  0.86009472  0.31630331  0.65498593    -0.10000
C960        C  0.87835143  0.32179374  0.64514037    -0.11600
C961        C  0.89492254  0.30814061  0.64458013    -0.01400
C962        C  0.89278362  0.28898317  0.65408396    -0.10500
C963        C  0.83916526  0.29086803  0.67518223     0.06000
H964        H  0.84750549  0.32700923  0.65516642     0.07900
H965        H  0.87946642  0.33664345  0.63796800     0.11400
H966        H  0.90516621  0.27804130  0.65416109     0.11600
H967        H  0.87378763  0.26877206  0.67115378     0.07900
C968        C  0.83173598  0.27081067  0.67330840    -0.11200
C969        C  0.81564548  0.26399093  0.68552434    -0.10500
C970        C  0.80652245  0.27709025  0.69987438    -0.01400
C971        C  0.81330424  0.29745577  0.70107535    -0.11600
C972        C  0.82946038  0.30427630  0.68883712    -0.10000
H973        H  0.83869022  0.26023123  0.66265017     0.07900
H974        H  0.81062301  0.24831311  0.68398188     0.11600
H975        H  0.80653194  0.30798028  0.71189818     0.11300
H976        H  0.83493397  0.31976597  0.69070030     0.07900
C977        C  0.00441907  0.21998413  0.61654781    -0.11200
C978        C  0.00949207  0.23978432  0.62292423     0.06000
C979        C  0.02936636  0.24382886  0.62976938    -0.10000
C980        C  0.04382078  0.22813469  0.63073170    -0.11600
C981        C  0.03871738  0.20822805  0.62449536    -0.01400
C982        C  0.01892916  0.20439800  0.61714815    -0.10500
C983        C  0.99377813  0.25593942  0.62315772     0.06000
H984        H  0.03352747  0.25901080  0.63484389     0.07900
H985        H  0.05896653  0.23158183  0.63635259     0.11400
H986        H  0.01450193  0.18924649  0.61222056     0.11600
H987        H  0.98918247  0.21659404  0.61112241     0.07900
C988        C  0.99710821  0.27463534  0.61325635    -0.11200
C989        C  0.98203571  0.28977250  0.61346058    -0.10500
C990        C  0.96346468  0.28653491  0.62378450    -0.01400
C991        C  0.96031200  0.26779755  0.63379968    -0.11600
C992        C  0.97527198  0.25263968  0.63339351    -0.10000
H993        H  0.01126772  0.27740251  0.60517208     0.07900
H994        H  0.98494338  0.30398372  0.60553491     0.11600
H995        H  0.94626276  0.26478209  0.64197480     0.11300
H996        H  0.97249498  0.23836869  0.64127683     0.07900
C997        C  0.62261738  0.21755377  0.83010699    -0.11200
C998        C  0.63930770  0.20423986  0.82936826     0.06000
C999        C  0.63851017  0.18589816  0.84055540    -0.10000
C1000       C  0.62094076  0.18076086  0.85177708    -0.11600
C1001       C  0.60405123  0.19400810  0.85207336    -0.01400
C1002       C  0.60529633  0.21253861  0.84123014    -0.10500
C1003       C  0.65710964  0.20973065  0.81652255     0.06000
H1004       H  0.65124519  0.17537208  0.84022314     0.07900
H1005       H  0.62051980  0.16644632  0.86002982     0.11400
H1006       H  0.59277090  0.22331363  0.84111541     0.11600
H1007       H  0.62294434  0.23198416  0.82202956     0.07900
C1008       C  0.65393781  0.21808796  0.79701633    -0.11200
C1009       C  0.67032667  0.22490298  0.78530597    -0.10500
C1010       C  0.69034394  0.22352397  0.79278719    -0.01400
C1011       C  0.69361966  0.21476798  0.81214459    -0.11600
C1012       C  0.67712937  0.20785896  0.82388700    -0.10000
H1013       H  0.63867956  0.21946775  0.79083603     0.07900
H1014       H  0.66724500  0.23144820  0.77043539     0.36400
H1015       H  0.70889031  0.21340394  0.81828464     0.11300
H1016       H  0.67996439  0.20160917  0.83893027     0.07900
C1017       C  0.50127220  0.22705755  0.88013059    -0.11200
C1018       C  0.50516381  0.24612779  0.87111930     0.06000
C1019       C  0.52440520  0.24984675  0.86246210    -0.10000
C1020       C  0.53949112  0.23484726  0.86286687    -0.11600
C1021       C  0.53568066  0.21579077  0.87197824    -0.01400
C1022       C  0.51639333  0.21203932  0.88058956    -0.10500
C1023       C  0.48927424  0.26217777  0.87084011     0.06000
H1024       H  0.52772958  0.26430856  0.85517523     0.07900
H1025       H  0.55416202  0.23824682  0.85604879     0.11400
H1026       H  0.51296680  0.19752616  0.88772222     0.11600
H1027       H  0.48662950  0.22386775  0.88711078     0.07900
C1028       C  0.46891606  0.25722690  0.86639785    -0.11200
C1029       C  0.45395340  0.27239017  0.86614487    -0.10500
C1030       C  0.45903244  0.29279757  0.87045544    -0.01400
C1031       C  0.47941307  0.29773579  0.87487078    -0.11600
C1032       C  0.49438274  0.28258645  0.87501415    -0.10000
H1033       H  0.46460284  0.24165394  0.86289427     0.07900
H1034       H  0.43837954  0.26807328  0.86271829     0.11600
H1035       H  0.48382701  0.31331370  0.87822003     0.11300
H1036       H  0.50992650  0.28679682  0.87869999     0.07900
C1037       C  0.18462618  0.83747982  0.64150344    -0.11200
C1038       C  0.20133510  0.82393318  0.64068701     0.06000
C1039       C  0.21170462  0.82154057  0.62207819    -0.10000
C1040       C  0.20573336  0.83240602  0.60481431    -0.11600
C1041       C  0.18917457  0.84609019  0.60552215    -0.01400
C1042       C  0.17850909  0.84837127  0.62402573    -0.10500
C1043       C  0.20830875  0.81232254  0.65898371     0.06000
H1044       H  0.22479595  0.81151255  0.62091056     0.07900
H1045       H  0.21428442  0.83008521  0.59083812     0.11400
H1046       H  0.16571872  0.85878770  0.62507767     0.11600
H1047       H  0.17621937  0.83953286  0.65559961     0.07900
C1048       C  0.20935651  0.82157610  0.67835177    -0.11200
C1049       C  0.21718804  0.81084082  0.69515880    -0.10500
C1050       C  0.22409681  0.79059566  0.69295984    -0.01400
C1051       C  0.22274938  0.78131639  0.67363650    -0.11600
C1052       C  0.21494600  0.79199880  0.65692419    -0.10000
H1053       H  0.20456703  0.83726844  0.68041141     0.07900
H1054       H  0.21791175  0.81842777  0.70984078     0.11600
H1055       H  0.22772068  0.76570615  0.67136449     0.11300
H1056       H  0.21406263  0.78427487  0.64232185     0.07900
C1057       C  0.27582225  0.88194750  0.49622076    -0.11200
C1058       C  0.25674011  0.87326531  0.49186189     0.06000
C1059       C  0.25305257  0.86536300  0.47229213    -0.10000
C1060       C  0.26821652  0.86607673  0.45732609    -0.11600
C1061       C  0.28732237  0.87487925  0.46159312    -0.01400
C1062       C  0.29095023  0.88282496  0.48121267    -0.10500
C1063       C  0.24076338  0.87230620  0.50775895     0.06000
H1064       H  0.23851314  0.85839693  0.46866723     0.07900
H1065       H  0.26491485  0.85975972  0.44239925     0.11400
H1066       H  0.30547810  0.88970783  0.48501216     0.11600
H1067       H  0.27893922  0.88826710  0.51119171     0.07900
C1068       C  0.24552006  0.86526191  0.52741062    -0.11200
C1069       C  0.23044843  0.86417912  0.54243287    -0.10500
C1070       C  0.21033862  0.87031745  0.53815956    -0.01400
C1071       C  0.20562889  0.87748998  0.51848365    -0.11600
C1072       C  0.22069011  0.87835821  0.50338763    -0.10000
H1073       H  0.26086521  0.86034092  0.53106372     0.07900
H1074       H  0.23460771  0.85859551  0.55742768     0.11600
H1075       H  0.19029240  0.88231578  0.51469615     0.11300
H1076       H  0.21672472  0.88398284  0.48834994     0.07900
C1077       C  0.03621903  0.12052845  0.58266584    -0.11200
C1078       C  0.04975759  0.10400436  0.58168682     0.06000
C1079       C  0.06811459  0.10493140  0.59276561    -0.10000
C1080       C  0.07297739  0.12243784  0.60422695    -0.11600
C1081       C  0.05944307  0.13913346  0.60486289    -0.01400
C1082       C  0.04095867  0.13779030  0.59404622    -0.10500
C1083       C  0.04431034  0.08623368  0.56877068     0.06000
H1084       H  0.07880572  0.09233379  0.59222244     0.07900
H1085       H  0.08730984  0.12296063  0.61241675     0.11400
H1086       H  0.02998593  0.15014801  0.59425695     0.11600
H1087       H  0.02179642  0.12006937  0.57461035     0.07900
C1088       C  0.04503395  0.06619504  0.57638436    -0.11200
C1089       C  0.03712489  0.04995256  0.56484197    -0.10500
C1090       C  0.02853398  0.05352854  0.54546532    -0.01400
C1091       C  0.02869818  0.07350169  0.53762806    -0.11600
C1092       C  0.03647351  0.08960480  0.54911933    -0.10000
H1093       H  0.05096435  0.06323383  0.59152892     0.07900
H1094       H  0.03748802  0.03468959  0.57117516     0.11600
H1095       H  0.02248962  0.07682744  0.52267173     0.11300
H1096       H  0.03599375  0.10487203  0.54277759     0.07900
C1097       C  0.07391583  0.92908466  0.55495117    -0.11200
C1098       C  0.08974555  0.92249909  0.54195434     0.06000
C1099       C  0.08948823  0.92907996  0.52145120    -0.10000
C1100       C  0.07376619  0.94144334  0.51406355    -0.11600
C1101       C  0.05800848  0.94800804  0.52702337    -0.01400
C1102       C  0.05831114  0.94178492  0.54760087    -0.10500
C1103       C  0.10659932  0.90899665  0.54947588     0.06000
H1104       H  0.10164873  0.92496809  0.51103889     0.07900
H1105       H  0.07416966  0.94617166  0.49821755     0.11400
H1106       H  0.04634819  0.94655187  0.55798818     0.11600
H1107       H  0.07339696  0.92423668  0.57074257     0.07900
C1108       C  0.11426807  0.91051415  0.56958094    -0.11200
C1109       C  0.13137083  0.89905623  0.57567801    -0.10500
C1110       C  0.14125681  0.88615023  0.56169031    -0.01400
C1111       C  0.13306782  0.88394094  0.54202283    -0.11600
C1112       C  0.11585911  0.89495012  0.53609349    -0.10000
H1113       H  0.10767141  0.92119485  0.58034171     0.07900
H1114       H  0.13753160  0.90115033  0.59087993     0.11600
H1115       H  0.14030203  0.87392389  0.53099882     0.11300
H1116       H  0.11006524  0.89266999  0.52078866     0.07900
C1117       C  0.91434011  0.92730819  0.61213927    -0.11200
C1118       C  0.91238452  0.94652659  0.60274826     0.06000
C1119       C  0.89831129  0.96059594  0.61067564    -0.10000
C1120       C  0.88707312  0.95594759  0.62818200    -0.11600
C1121       C  0.88930298  0.93695207  0.63787027    -0.01400
C1122       C  0.90266000  0.92244465  0.62944512    -0.10500
C1123       C  0.92584447  0.95265615  0.58561406     0.06000
H1124       H  0.89667207  0.97556280  0.60383738     0.07900
H1125       H  0.87692587  0.96741271  0.63446098     0.11400
H1126       H  0.90480706  0.90780491  0.63681933     0.11600
H1127       H  0.92512821  0.91622855  0.60626782     0.07900
C1128       C  0.94711292  0.95111616  0.58754788    -0.11200
C1129       C  0.95995220  0.95892729  0.57236407    -0.10500
C1130       C  0.95176747  0.96809003  0.55475961    -0.01400
C1131       C  0.93046285  0.96902218  0.55253741    -0.11600
C1132       C  0.91762940  0.96158726  0.56793285    -0.10000
H1133       H  0.95379851  0.94448472  0.60113582     0.07900
H1134       H  0.97630949  0.95781003  0.57441035     0.11600
H1135       H  0.92372250  0.97594102  0.53912408     0.11300
H1136       H  0.90126095  0.96294536  0.56613233     0.07900
C1137       C  0.41268276  0.54961967  0.95558915    -0.11200
C1138       C  0.41295277  0.57076544  0.95911915     0.06000
C1139       C  0.42948512  0.57937773  0.96969519    -0.10000
C1140       C  0.44537482  0.56705510  0.97681598    -0.11600
C1141       C  0.44476309  0.54581637  0.97394970    -0.01400
C1142       C  0.42834736  0.53721663  0.96313833    -0.10500
C1143       C  0.39531802  0.58361103  0.95324663     0.06000
H1144       H  0.42999035  0.59565503  0.97259219     0.07900
H1145       H  0.45784516  0.57406170  0.98509379     0.11400
H1146       H  0.42761707  0.52089306  0.96056807     0.11600
H1147       H  0.40000183  0.54263006  0.94762091     0.07900
C1148       C  0.38734610  0.58320827  0.93330816    -0.11200
C1149       C  0.37001786  0.59478271  0.92835912    -0.10500
C1150       C  0.36017332  0.60646588  0.94343899    -0.01400
C1151       C  0.36839119  0.60702712  0.96324658    -0.11600
C1152       C  0.38585697  0.59587672  0.96804516    -0.10000
H1153       H  0.39443990  0.57383405  0.92165913     0.07900
H1154       H  0.36382070  0.59391027  0.91305405     0.11600
H1155       H  0.36106142  0.61586057  0.97517783     0.11300
H1156       H  0.39160286  0.59628845  0.98355088     0.07900
C1157       C  0.57948984  0.43947630  0.05887795    -0.11200
C1158       C  0.59559359  0.43371194  0.04588246     0.06000
C1159       C  0.59462018  0.43931391  0.02513767    -0.10000
C1160       C  0.57786609  0.45001874  0.01749155    -0.11600
C1161       C  0.56179316  0.45573565  0.03044626    -0.01400
C1162       C  0.56281752  0.45046662  0.05125674    -0.10500
C1163       C  0.61346334  0.42200784  0.05368017     0.06000
H1164       H  0.60697841  0.43566322  0.01477493     0.07900
H1165       H  0.57767737  0.45415344  0.00147585     0.11400
H1166       H  0.55061250  0.45465654  0.06161169     0.11600
H1167       H  0.57963578  0.43528273  0.07487068     0.07900
C1168       C  0.62189274  0.42599055  0.07309030    -0.11200
C1169       C  0.63986923  0.41617225  0.07934366    -0.10500
C1170       C  0.64979228  0.40248117  0.06616677    -0.01400
C1171       C  0.64093025  0.39785569  0.04724382    -0.11600
C1172       C  0.62287338  0.40729412  0.04117820    -0.10000
H1173       H  0.61512487  0.43731340  0.08306877     0.07900
H1174       H  0.64658845  0.42008694  0.09393890     0.11600
H1175       H  0.64825230  0.38718180  0.03691980     0.11300
H1176       H  0.61650843  0.40334647  0.02644241     0.07900
C1177       C  0.44650978  0.42628889  0.93572374    -0.11200
C1178       C  0.45896396  0.41019159  0.92884060     0.06000
C1179       C  0.47932428  0.40942603  0.93579131    -0.10000
C1180       C  0.48714419  0.42457560  0.94870716    -0.11600
C1181       C  0.47473194  0.44071687  0.95538278    -0.01400
C1182       C  0.45425713  0.44126893  0.94890599    -0.10500
C1183       C  0.45099164  0.39430846  0.91442157     0.06000
H1184       H  0.48928234  0.39699370  0.93139049     0.07900
H1185       H  0.50288003  0.42353679  0.95362750     0.11400
H1186       H  0.44427460  0.45354636  0.95372088     0.11600
H1187       H  0.43086515  0.42759426  0.93061959     0.07900
C1188       C  0.43058801  0.38742226  0.91530880    -0.11200
C1189       C  0.42387120  0.37134295  0.90275003    -0.10500
C1190       C  0.43748838  0.36169942  0.88927428    -0.01400
C1191       C  0.45748609  0.36922555  0.88768148    -0.11600
C1192       C  0.46407891  0.38539526  0.89989671    -0.10000
H1193       H  0.42003405  0.39379327  0.92632510     0.07900
H1194       H  0.40844439  0.36566926  0.90445852     0.11600
H1195       H  0.46828157  0.36216913  0.87730369     0.11300
H1196       H  0.47963435  0.39065688  0.89815550     0.07900
C1197       C  0.42462611  0.45440206  0.07311294    -0.11200
C1198       C  0.43238122  0.45442971  0.09312592     0.06000
C1199       C  0.45227761  0.46169765  0.09644500    -0.10000
C1200       C  0.46387814  0.46946851  0.08037257    -0.11600
C1201       C  0.45595243  0.47017859  0.06044715    -0.01400
C1202       C  0.43629027  0.46226688  0.05691329    -0.10500
C1203       C  0.41945021  0.44872760  0.11092260     0.06000
H1204       H  0.45880125  0.46165405  0.11164101     0.07900
H1205       H  0.47901438  0.47520592  0.08367977     0.11400
H1206       H  0.42981701  0.46240812  0.04170354     0.11600
H1207       H  0.40930287  0.44900442  0.07012911     0.07900
C1208       C  0.41966794  0.46129860  0.12823861    -0.11200
C1209       C  0.40797951  0.45653415  0.14528449    -0.10500
C1210       C  0.39552118  0.43902283  0.14568750    -0.01400
C1211       C  0.39520815  0.42626009  0.12838878    -0.11600
C1212       C  0.40699434  0.43117630  0.11104063    -0.10000
H1213       H  0.42876743  0.47510207  0.12854523     0.07900
H1214       H  0.40877221  0.46678818  0.15824487     0.11600
H1215       H  0.38569894  0.41274823  0.12816560     0.11300
H1216       H  0.40656370  0.42119885  0.09785191     0.07900
C1217       C  0.37564854  0.50151794  0.21848587    -0.11200
C1218       C  0.36783778  0.49822913  0.23817667     0.06000
C1219       C  0.35912583  0.47923649  0.24293433    -0.10000
C1220       C  0.35892134  0.46354017  0.22852262    -0.11600
C1221       C  0.36757022  0.46648325  0.20909245    -0.01400
C1222       C  0.37557291  0.48577335  0.20408548    -0.10500
C1223       C  0.36989088  0.51408313  0.25412239     0.06000
H1224       H  0.35274931  0.47644126  0.25794658     0.07900
H1225       H  0.35250371  0.44893167  0.23284041     0.11400
H1226       H  0.38225717  0.48858391  0.18921526     0.11600
H1227       H  0.38254076  0.51600593  0.21449476     0.07900
C1228       C  0.37707712  0.50872782  0.27357181    -0.11200
C1229       C  0.37954817  0.52355523  0.28863960    -0.10500
C1230       C  0.37476227  0.54409087  0.28464628    -0.01400
C1231       C  0.36753385  0.54946520  0.26515311    -0.11600
C1232       C  0.36522488  0.53459328  0.24998490    -0.10000
H1233       H  0.38108773  0.49306479  0.27704018     0.07900
H1234       H  0.38514038  0.51885331  0.30346683     0.11600
H1235       H  0.36371304  0.56514769  0.26158893     0.11300
H1236       H  0.35960188  0.53906346  0.23509397     0.07900
C1237       C  0.68395688  0.84540597  0.86418248    -0.11200
C1238       C  0.69817367  0.82931522  0.86520928     0.06000
C1239       C  0.70749109  0.82498119  0.88399725    -0.10000
C1240       C  0.70315115  0.83668132  0.90122281    -0.11600
C1241       C  0.68929356  0.85303349  0.90022008    -0.01400
C1242       C  0.67943830  0.85709515  0.88160226    -0.10500
C1243       C  0.70416354  0.81745791  0.84679397     0.06000
H1244       H  0.71869863  0.81289771  0.88526557     0.07900
H1245       H  0.71094142  0.83303431  0.91533978     0.11400
H1246       H  0.66873010  0.86962467  0.88036872     0.11600
H1247       H  0.67643803  0.84899119  0.84990812     0.07900
C1248       C  0.70740240  0.79629161  0.84818414    -0.11200
C1249       C  0.71514196  0.78535122  0.83158811    -0.10500
C1250       C  0.71973063  0.79527202  0.81310939    -0.01400
C1251       C  0.71590169  0.81634074  0.81147821    -0.11600
C1252       C  0.70820866  0.82732776  0.82816549    -0.10000
H1253       H  0.70412418  0.78819640  0.86223039     0.07900
H1254       H  0.71757212  0.76908366  0.83328035     0.11600
H1255       H  0.71916954  0.82440913  0.79741878     0.11300
H1256       H  0.70606660  0.84365499  0.82670365     0.07900
C1257       C  0.79388302  0.79947298  0.15944587    -0.11200
C1258       C  0.79517512  0.82061805  0.16256478     0.06000
C1259       C  0.78805898  0.82905935  0.18091370    -0.10000
C1260       C  0.77983201  0.81650032  0.19604095    -0.11600
C1261       C  0.77819787  0.79532414  0.19287317    -0.01400
C1262       C  0.78530574  0.78692435  0.17441880    -0.10500
C1263       C  0.80238386  0.83400101  0.14601464     0.06000
H1264       H  0.78881951  0.84538637  0.18346941     0.07900
H1265       H  0.77449714  0.82340813  0.21010329     0.11400
H1266       H  0.78434087  0.77065625  0.17159788     0.11600
H1267       H  0.79904755  0.79277056  0.14521560     0.07900
C1268       C  0.82196636  0.83164161  0.13759413    -0.11200
C1269       C  0.82789685  0.84330653  0.12066937    -0.10500
C1270       C  0.81405990  0.85697931  0.11173097    -0.01400
C1271       C  0.79472866  0.85970008  0.12060125    -0.11600
C1272       C  0.78902015  0.84846637  0.13773259    -0.10000
H1273       H  0.83244800  0.82051098  0.14387073     0.07900
H1274       H  0.84278432  0.84084520  0.11390838     0.11600
H1275       H  0.78380882  0.87015307  0.11390478     0.11300
H1276       H  0.77382817  0.85039779  0.14398460     0.07900
C1277       C  0.77150954  0.89374601  0.01752702    -0.11200
C1278       C  0.76008073  0.87610384  0.01338881     0.06000
C1279       C  0.76372613  0.85826502  0.02471037    -0.10000
C1280       C  0.77849532  0.85815645  0.04007260    -0.11600
C1281       C  0.79009707  0.87572732  0.04390954    -0.01400
C1282       C  0.78658106  0.89348053  0.03251932    -0.10500
C1283       C  0.74444029  0.87640881  0.99722626     0.06000
H1284       H  0.75500744  0.84452266  0.02179876     0.07900
H1285       H  0.78118001  0.84427082  0.04864174     0.11400
H1286       H  0.79542351  0.90717031  0.03532710     0.11600
H1287       H  0.76902746  0.90761808  0.00888202     0.07900
C1288       C  0.73029036  0.89245066  0.99632796    -0.11200
C1289       C  0.71560820  0.89294970  0.98094606    -0.10500
C1290       C  0.71495681  0.87752207  0.96603399    -0.01400
C1291       C  0.72924073  0.86153112  0.96686753    -0.11600
C1292       C  0.74377298  0.86090744  0.98243359    -0.10000
H1293       H  0.73047507  0.90449936  0.00767322     0.07900
H1294       H  0.70483080  0.90548207  0.98068705     0.11600
H1295       H  0.72905712  0.84938492  0.95563338     0.11300
H1296       H  0.75467863  0.84848353  0.98276562     0.07900
C1297       C  0.98404304  0.90798584  0.42943383    -0.11200
C1298       C  0.96359764  0.90694546  0.42282593     0.06000
C1299       C  0.94975141  0.92159368  0.43029153    -0.10000
C1300       C  0.95622638  0.93691988  0.44375636    -0.11600
C1301       C  0.97675627  0.93815527  0.44990021    -0.01400
C1302       C  0.99056231  0.92348105  0.44260155    -0.10500
C1303       C  0.95699669  0.89072308  0.40813192     0.06000
H1304       H  0.93397346  0.92150447  0.42544761     0.07900
H1305       H  0.94519712  0.94803791  0.44907900     0.11400
H1306       H  0.00641119  0.92382476  0.44725128     0.11600
H1307       H  0.99509327  0.89669072  0.42459746     0.07900
C1308       C  0.97072039  0.88338833  0.39331797    -0.11200
C1309       C  0.96544701  0.86713006  0.38061591    -0.10500
C1310       C  0.94614146  0.85793084  0.38198532    -0.01400
C1311       C  0.93187771  0.86588234  0.39589399    -0.11600
C1312       C  0.93729936  0.88203346  0.40895944    -0.10000
H1313       H  0.98572749  0.89005979  0.39160270     0.07900
H1314       H  0.97669434  0.86149698  0.36985747     0.11600
H1315       H  0.91694307  0.85896891  0.39737890     0.11300
H1316       H  0.92630949  0.88713739  0.42020598     0.07900
C1317       C  0.86426659  0.81420422  0.33825431    -0.11200
C1318       C  0.86292775  0.79488902  0.32879241     0.06000
C1319       C  0.88035031  0.78248826  0.32828676    -0.10000
C1320       C  0.89864227  0.78918468  0.33671999    -0.11600
C1321       C  0.90024008  0.80860115  0.34588332    -0.01400
C1322       C  0.88275227  0.82098996  0.34676459    -0.10500
C1323       C  0.84388101  0.78780853  0.31859427     0.06000
H1324       H  0.88006174  0.76773437  0.32081588     0.07900
H1325       H  0.91167596  0.77907484  0.33570431     0.11400
H1326       H  0.88341166  0.83596734  0.35374541     0.11600
H1327       H  0.85103516  0.82406857  0.33905129     0.07900
C1328       C  0.83811553  0.76709165  0.31923974    -0.11200
C1329       C  0.82128811  0.76005966  0.30813045    -0.10500
C1330       C  0.80975036  0.77358528  0.29616423    -0.01400
C1331       C  0.81521634  0.79437892  0.29591980    -0.11600
C1332       C  0.83205894  0.80139318  0.30698765    -0.10000
H1333       H  0.84671663  0.75624218  0.32825282     0.07900
H1334       H  0.81747059  0.74398423  0.30873944     0.11600
H1335       H  0.80668653  0.80524608  0.28685734     0.11300
H1336       H  0.83621467  0.81735491  0.30589165     0.07900
C1337       C  0.00973964  0.72652290  0.36718051    -0.11200
C1338       C  0.01683485  0.74549506  0.36008993     0.06000
C1339       C  0.03781656  0.74829921  0.35700716    -0.10000
C1340       C  0.05145878  0.73242134  0.36093052    -0.11600
C1341       C  0.04441022  0.71345821  0.36818974    -0.01400
C1342       C  0.02339286  0.71067914  0.37126284    -0.10500
C1343       C  0.00234712  0.76246379  0.35671446     0.06000
H1344       H  0.04364951  0.76274178  0.35146225     0.07900
H1345       H  0.06756804  0.73509010  0.35839908     0.11400
H1346       H  0.01747561  0.69626731  0.37678760     0.11600
H1347       H  0.99363416  0.72407216  0.36996794     0.07900
C1348       C  0.98358865  0.75878762  0.34711603    -0.11200
C1349       C  0.96881828  0.77406150  0.34621245    -0.10500
C1350       C  0.97244969  0.79331496  0.35502554    -0.01400
C1351       C  0.99172992  0.79740043  0.36346404    -0.11600
C1352       C  0.00656835  0.78209848  0.36427073    -0.10000
H1353       H  0.98014849  0.74390023  0.34078121     0.07900
H1354       H  0.95424783  0.77045754  0.33931520     0.11600
H1355       H  0.99507366  0.81211740  0.37022405     0.11300
H1356       H  0.02094640  0.78532075  0.37174079     0.07900
C1357       C  0.67606810  0.87953704  0.28852827    -0.11200
C1358       C  0.67204113  0.86113411  0.29870534     0.06000
C1359       C  0.65654409  0.86064171  0.31359341    -0.10000
C1360       C  0.64542093  0.87834956  0.31827729    -0.11600
C1361       C  0.64947582  0.89671512  0.30793895    -0.01400
C1362       C  0.66495699  0.89705440  0.29306336    -0.10500
C1363       C  0.68401420  0.84266983  0.29335591     0.06000
H1364       H  0.65318056  0.84664163  0.32171155     0.07900
H1365       H  0.63351928  0.87760640  0.32973931     0.11400
H1366       H  0.66854853  0.91091830  0.28480336     0.11600
H1367       H  0.68765024  0.88033550  0.27674010     0.07900
C1368       C  0.67443736  0.82369579  0.29045666    -0.11200
C1369       C  0.68562461  0.80688046  0.28339797    -0.10500
C1370       C  0.70657950  0.80876808  0.27913175    -0.01400
C1371       C  0.71622066  0.82758587  0.28274901    -0.11600
C1372       C  0.70508955  0.84429544  0.28980799    -0.10000
H1373       H  0.65818503  0.82205089  0.29294627     0.07900
H1374       H  0.67778052  0.79255726  0.28084723     0.11600
H1375       H  0.73238139  0.82952710  0.27988294     0.11300
H1376       H  0.71295747  0.85862702  0.29226727     0.07900
C1377       C  0.62166859  0.00778923  0.22078832    -0.11200
C1378       C  0.62926248  0.01226109  0.24030883     0.06000
C1379       C  0.63626579  0.03203311  0.24459917    -0.10000
C1380       C  0.63581820  0.04709281  0.22951629    -0.11600
C1381       C  0.62810770  0.04269317  0.20994902    -0.01400
C1382       C  0.62099818  0.02287706  0.20577360    -0.10500
C1383       C  0.62971650  0.99627545  0.25615087     0.06000
H1384       H  0.64228474  0.03574392  0.25955220     0.07900
H1385       H  0.64141777  0.06219625  0.23323965     0.11400
H1386       H  0.61495294  0.01897303  0.19088741     0.11600
H1387       H  0.61600867  0.99265794  0.21724671     0.07900
C1388       C  0.62140428  0.99998753  0.27555668    -0.11200
C1389       C  0.62092064  0.98448689  0.29017917    -0.10500
C1390       C  0.62898438  0.96508230  0.28571041    -0.01400
C1391       C  0.63775755  0.96159816  0.26641888    -0.11600
C1392       C  0.63799409  0.97702027  0.25173677    -0.10000
H1393       H  0.61485564  0.01473142  0.27921898     0.07900
H1394       H  0.61414900  0.98769333  0.30493646     0.11600
H1395       H  0.64415564  0.94685515  0.26251775     0.11300
H1396       H  0.64464961  0.97392967  0.23689835     0.07900
C1397       C  0.92841411  0.55237999  0.07005959    -0.11200
C1398       C  0.92277130  0.53950245  0.08632322     0.06000
C1399       C  0.93081503  0.51955317  0.08682529    -0.10000
C1400       C  0.94401593  0.51266487  0.07154016    -0.11600
C1401       C  0.94990389  0.52565874  0.05557363    -0.01400
C1402       C  0.94197262  0.54558998  0.05496446    -0.10500
C1403       C  0.90935998  0.54692302  0.10323027     0.06000
H1404       H  0.92736247  0.50931678  0.09932528     0.07900
H1405       H  0.95003473  0.49729221  0.07250739     0.11400
H1406       H  0.94610767  0.55587959  0.04269424     0.11600
H1407       H  0.92233736  0.56770172  0.06892349     0.07900
C1408       C  0.91038234  0.56730418  0.11010686    -0.11200
C1409       C  0.89974454  0.57347533  0.12763006    -0.10500
C1410       C  0.88822642  0.55930773  0.13881717    -0.01400
C1411       C  0.88624874  0.53931621  0.13138633    -0.11600
C1412       C  0.89644006  0.53327206  0.11364903    -0.10000
H1413       H  0.92024508  0.57825943  0.10265510     0.07900
H1414       H  0.90160539  0.58895288  0.13316463     0.11600
H1415       H  0.87722807  0.52817877  0.13964232     0.11300
H1416       H  0.89463361  0.51768209  0.10846512     0.07900
C1417       C  0.83406356  0.63521022  0.18126463    -0.11200
C1418       C  0.83582658  0.64257163  0.20144217     0.06000
C1419       C  0.84982787  0.63302088  0.21460721    -0.10000
C1420       C  0.86067498  0.61581968  0.20828146    -0.11600
C1421       C  0.85822216  0.60798926  0.18847208    -0.01400
C1422       C  0.84530778  0.61818644  0.17479216    -0.10500
C1423       C  0.82250640  0.65941422  0.20911091     0.06000
H1424       H  0.85219485  0.63858736  0.22999257     0.07900
H1425       H  0.87073703  0.60836113  0.21907096     0.11400
H1426       H  0.84303037  0.61232911  0.15948696     0.11600
H1427       H  0.82333537  0.64197887  0.17070102     0.07900
C1428       C  0.81598724  0.67519171  0.19608086    -0.11200
C1429       C  0.80296655  0.69053843  0.20325719    -0.10500
C1430       C  0.79642100  0.69067810  0.22371342    -0.01400
C1431       C  0.80308678  0.67511959  0.23681916    -0.11600
C1432       C  0.81577810  0.65957768  0.22957047    -0.10000
H1433       H  0.82107024  0.67583991  0.18036103     0.07900
H1434       H  0.79823075  0.70246384  0.19283534     0.11600
H1435       H  0.79817621  0.67473366  0.25261921     0.11300
H1436       H  0.81995941  0.64746839  0.23999232     0.07900
C1437       C  0.88908039  0.49829472  0.27700515    -0.11200
C1438       C  0.87828271  0.49521416  0.25873246     0.06000
C1439       C  0.86595404  0.47781401  0.25673070    -0.10000
C1440       C  0.86431473  0.46383838  0.27272226    -0.11600
C1441       C  0.87502307  0.46692096  0.29107392    -0.01400
C1442       C  0.88748993  0.48427996  0.29301313    -0.10500
C1443       C  0.87916486  0.51048033  0.24208724     0.06000
H1444       H  0.85721615  0.47523299  0.24293685     0.07900
H1445       H  0.85452746  0.45067479  0.27070776     0.11400
H1446       H  0.89602191  0.48707153  0.30689207     0.11600
H1447       H  0.89882236  0.51151701  0.27887288     0.07900
C1448       C  0.87765777  0.53137388  0.24660534    -0.11200
C1449       C  0.87706842  0.54576834  0.23092879    -0.10500
C1450       C  0.87813429  0.53959760  0.21038224    -0.01400
C1451       C  0.88023913  0.51872672  0.20585787    -0.11600
C1452       C  0.88064124  0.50429083  0.22157177    -0.10000
H1453       H  0.87631360  0.53655506  0.26226439     0.07900
H1454       H  0.87558610  0.56174798  0.23493233     0.11600
H1455       H  0.88112652  0.51350534  0.19017979     0.11300
H1456       H  0.88202447  0.48827092  0.21769642     0.07900
C1457       C  0.55689093  0.05812868  0.07992003    -0.11200
C1458       C  0.57231611  0.04568402  0.08815744     0.06000
C1459       C  0.57512039  0.02603379  0.07981092    -0.10000
C1460       C  0.56237739  0.01871662  0.06433300    -0.11600
C1461       C  0.54663757  0.03093176  0.05647393    -0.01400
C1462       C  0.54425490  0.05086848  0.06421115    -0.10500
C1463       C  0.58454700  0.05237929  0.10625350     0.06000
H1464       H  0.58714341  0.01616161  0.08535187     0.07900
H1465       H  0.56489047  0.00343523  0.05850797     0.11400
H1466       H  0.53231505  0.06071925  0.05844036     0.11600
H1467       H  0.55413216  0.07324026  0.08604642     0.07900
C1468       C  0.59089079  0.07280520  0.10902058    -0.11200
C1469       C  0.60191107  0.07865480  0.12656919    -0.10500
C1470       C  0.60668882  0.06420362  0.14171379    -0.01400
C1471       C  0.60046513  0.04382892  0.13866482    -0.11600
C1472       C  0.58954802  0.03807706  0.12137579    -0.10000
H1473       H  0.58741335  0.08422888  0.09760624     0.07900
H1474       H  0.60642560  0.09445304  0.12839290     0.11600
H1475       H  0.60377770  0.03210884  0.14983159     0.11300
H1476       H  0.58459533  0.02235287  0.12015901     0.07900
C1477       C  0.58064748  0.94272098  0.94583329    -0.11200
C1478       C  0.59376625  0.93351264  0.96004006     0.06000
C1479       C  0.58924011  0.93525086  0.98098187    -0.10000
C1480       C  0.57237195  0.94650866  0.98761822    -0.11600
C1481       C  0.55966050  0.95638904  0.97347201    -0.01400
C1482       C  0.56381700  0.95411186  0.95247647    -0.10500
C1483       C  0.61269789  0.92300519  0.95327844     0.06000
H1484       H  0.59890112  0.92803345  0.99227922     0.07900
H1485       H  0.56956715  0.94783763  0.00387252     0.11400
H1486       H  0.55426281  0.96143091  0.94115872     0.11600
H1487       H  0.58380154  0.94171191  0.92961967     0.07900
C1488       C  0.61279084  0.90957639  0.93647230    -0.11200
C1489       C  0.63070458  0.89921086  0.93088902    -0.10500
C1490       C  0.64881213  0.90217140  0.94199577    -0.01400
C1491       C  0.64875977  0.91620126  0.95829333    -0.11600
C1492       C  0.63097222  0.92643047  0.96385562    -0.10000
H1493       H  0.59889395  0.90666503  0.92803499     0.07900
H1494       H  0.63022480  0.88848749  0.91829976     0.11600
H1495       H  0.66245568  0.91912017  0.96705865     0.11300
H1496       H  0.63151749  0.93706051  0.97652868     0.07900
C1497       C  0.45306080  0.96898912  0.90099015    -0.11200
C1498       C  0.43436659  0.95912037  0.90467175     0.06000
C1499       C  0.42748883  0.95702565  0.92485674    -0.10000
C1500       C  0.43886964  0.96512923  0.94102725    -0.11600
C1501       C  0.45745105  0.97527922  0.93731006    -0.01400
C1502       C  0.46450923  0.97690959  0.91711822    -0.10500
C1503       C  0.42175514  0.95212866  0.88725492     0.06000
H1504       H  0.41307110  0.94960595  0.92806795     0.07900
H1505       H  0.43309669  0.96347001  0.95643998     0.11400
H1506       H  0.47879509  0.98450203  0.91372876     0.11600
H1507       H  0.45880224  0.97062225  0.88555572     0.07900
C1508       C  0.41898664  0.96518653  0.87057994    -0.11200
C1509       C  0.40817715  0.95873407  0.85352032    -0.10500
C1510       C  0.39981104  0.93894468  0.85254148    -0.01400
C1511       C  0.40193012  0.92600430  0.86953325    -0.11600
C1512       C  0.41279675  0.93259099  0.88682510    -0.10000
H1513       H  0.42529453  0.98047803  0.87070166     0.07900
H1514       H  0.40659712  0.96936297  0.84096309     0.11600
H1515       H  0.39558530  0.91074179  0.86930341     0.11300
H1516       H  0.41469578  0.92226581  0.89959049     0.07900
C1517       C  0.53565034  0.12881519  0.91514036    -0.11200
C1518       C  0.55021823  0.11344490  0.91796230     0.06000
C1519       C  0.56938554  0.11539995  0.90842219    -0.10000
C1520       C  0.57400757  0.13287912  0.89679099    -0.11600
C1521       C  0.55942088  0.14848530  0.89440351    -0.01400
C1522       C  0.54013355  0.14599778  0.90355650    -0.10500
C1523       C  0.54490849  0.09576556  0.93109353     0.06000
H1524       H  0.58086933  0.10367342  0.91034991     0.07900
H1525       H  0.58896836  0.13426717  0.88989954     0.11400
H1526       H  0.52833323  0.15745348  0.90198047     0.11600
H1527       H  0.52062529  0.12752518  0.92193700     0.07900
C1528       C  0.53514264  0.09917003  0.94991002    -0.11200
C1529       C  0.52756227  0.08289442  0.96135060    -0.10500
C1530       C  0.52948078  0.06273999  0.95425579    -0.01400
C1531       C  0.53993148  0.05922207  0.93575287    -0.11600
C1532       C  0.54766975  0.07560723  0.92431376    -0.10000
H1533       H  0.53301036  0.11456119  0.95559731     0.07900
H1534       H  0.51981763  0.08618449  0.97560173     0.11600
H1535       H  0.54188004  0.04384730  0.92997855     0.11300
H1536       H  0.55506547  0.07259389  0.90981662     0.07900
C1537       C  0.15539790  0.19994087  0.70754812    -0.11200
C1538       C  0.15639734  0.19542326  0.68658789     0.06000
C1539       C  0.17482014  0.19887288  0.67611280    -0.10000
C1540       C  0.19158568  0.20750111  0.68621287    -0.11600
C1541       C  0.19024113  0.21284143  0.70698926    -0.01400
C1542       C  0.17206810  0.20856174  0.71760281    -0.10500
C1543       C  0.13770789  0.18907254  0.67541996     0.06000
H1544       H  0.17600295  0.19569040  0.65991910     0.07900
H1545       H  0.20542308  0.21040355  0.67764660     0.11400
H1546       H  0.17057861  0.21212102  0.73369573     0.11600
H1547       H  0.14153869  0.19713715  0.71612240     0.07900
C1548       C  0.13829449  0.17415094  0.65993232    -0.11200
C1549       C  0.12075563  0.16968166  0.64847361    -0.10500
C1550       C  0.10248012  0.18031908  0.65212196    -0.01400
C1551       C  0.10182516  0.19471244  0.66803264    -0.11600
C1552       C  0.11915902  0.19898188  0.67954784    -0.10000
H1553       H  0.15235284  0.16614273  0.65654511     0.07900
H1554       H  0.12168139  0.15848643  0.63632446     0.11600
H1555       H  0.08793240  0.20303310  0.67137937     0.11300
H1556       H  0.11820868  0.21069773  0.69119380     0.07900
C1557       C  0.30613887  0.16397120  0.69110071    -0.11200
C1558       C  0.31936102  0.15315914  0.70402746     0.06000
C1559       C  0.32150558  0.15964329  0.72441137    -0.10000
C1560       C  0.31013895  0.17604787  0.73193113    -0.11600
C1561       C  0.29640969  0.18646957  0.71922081    -0.01400
C1562       C  0.29476856  0.18044966  0.69861982    -0.10500
C1563       C  0.32992135  0.13438337  0.69687191     0.06000
H1564       H  0.33186072  0.15184796  0.73465860     0.07900
H1565       H  0.31194173  0.18039434  0.74779124     0.11400
H1566       H  0.28436315  0.18818976  0.68838363     0.11600
H1567       H  0.30404941  0.15925021  0.67538407     0.07900
C1568       C  0.33074462  0.11733278  0.70976519    -0.11200
C1569       C  0.34076527  0.09962846  0.70368034    -0.10500
C1570       C  0.35032746  0.09833715  0.68445214    -0.01400
C1571       C  0.34924079  0.11525659  0.67127273    -0.11600
C1572       C  0.33904223  0.13312253  0.67741264    -0.10000
H1573       H  0.32345697  0.11759758  0.72462149     0.07900
H1574       H  0.34106281  0.08694867  0.71427712     0.11600
H1575       H  0.35637591  0.11475716  0.65635447     0.11300
H1576       H  0.33862284  0.14605931  0.66713388     0.07900
C1577       C  0.32315945  0.30312974  0.81105546    -0.11200
C1578       C  0.33969452  0.29103370  0.81746058     0.06000
C1579       C  0.34059277  0.27057464  0.81077795    -0.10000
C1580       C  0.32520021  0.26231924  0.79853795    -0.11600
C1581       C  0.30868720  0.27438757  0.79225587    -0.01400
C1582       C  0.30791347  0.29493815  0.79850074    -0.10500
C1583       C  0.35598517  0.29947671  0.83103339     0.06000
H1584       H  0.35333912  0.26088702  0.81481179     0.07900
H1585       H  0.32637643  0.24652133  0.79376827     0.11400
H1586       H  0.29531254  0.30461916  0.79396754     0.11600
H1587       H  0.32176893  0.31883728  0.81601290     0.07900
C1588       C  0.36255367  0.31995209  0.82948729    -0.11200
C1589       C  0.37910549  0.32706609  0.84113135    -0.10500
C1590       C  0.38950577  0.31376094  0.85429643    -0.01400
C1591       C  0.38233264  0.29369311  0.85655248    -0.11600
C1592       C  0.36570072  0.28671988  0.84528412    -0.10000
H1593       H  0.35555698  0.33023699  0.81862625     0.07900
H1594       H  0.38451919  0.34253106  0.83892825     0.11600
H1595       H  0.39000939  0.28314248  0.86670867     0.11300
H1596       H  0.36072318  0.27112352  0.84751668     0.07900
C1597       C  0.16706426  0.61929489  0.72320903    -0.11200
C1598       C  0.16652556  0.63695118  0.71110586     0.06000
C1599       C  0.15460221  0.63675563  0.69318978    -0.10000
C1600       C  0.14320954  0.61935905  0.68778278    -0.11600
C1601       C  0.14355906  0.60182886  0.70018304    -0.01400
C1602       C  0.15577247  0.60207325  0.71787813    -0.10500
C1603       C  0.17848083  0.65528702  0.71742105     0.06000
H1604       H  0.15379835  0.65016573  0.68356806     0.07900
H1605       H  0.13397815  0.61972516  0.67408112     0.11400
H1606       H  0.15672610  0.58885749  0.72775545     0.11600
H1607       H  0.17642831  0.61868192  0.73681594     0.07900
C1608       C  0.17969946  0.66080241  0.73817588    -0.11200
C1609       C  0.19187359  0.67716192  0.74447439    -0.10500
C1610       C  0.20318611  0.68850294  0.73020083    -0.01400
C1611       C  0.20169641  0.68326389  0.70937930    -0.11600
C1612       C  0.18944080  0.66688250  0.70306213    -0.10000
H1613       H  0.17121473  0.65241763  0.74962368     0.07900
H1614       H  0.19256733  0.68077831  0.76060634     0.11600
H1615       H  0.21018366  0.69168224  0.69795760     0.11300
H1616       H  0.18899342  0.66294281  0.68700036     0.07900
C1617       C  0.10112793  0.43464469  0.89696724    -0.11200
C1618       C  0.08063604  0.44083598  0.89490379     0.06000
C1619       C  0.07112728  0.43854725  0.87577341    -0.10000
C1620       C  0.08223322  0.43213012  0.85878210    -0.11600
C1621       C  0.10291696  0.42716203  0.86061127    -0.01400
C1622       C  0.11215642  0.42771263  0.87992939    -0.10500
C1623       C  0.06950603  0.45107825  0.91194869     0.06000
H1624       H  0.05520398  0.44241147  0.87372323     0.07900
H1625       H  0.07481928  0.43166794  0.84400225     0.11400
H1626       H  0.12820108  0.42411199  0.88156969     0.11600
H1627       H  0.10897015  0.43622090  0.91142439     0.07900
C1628       C  0.07244248  0.44537169  0.93247186    -0.11200
C1629       C  0.06160059  0.45517224  0.94816205    -0.10500
C1630       C  0.04745553  0.47064232  0.94357148    -0.01400
C1631       C  0.04478396  0.47652826  0.92317763    -0.11600
C1632       C  0.05582315  0.46706845  0.90762342    -0.10000
H1633       H  0.08276590  0.43308092  0.93637694     0.07900
H1634       H  0.06380264  0.45023975  0.96379446     0.11600
H1635       H  0.03415653  0.48856260  0.91923511     0.11300
H1636       H  0.05365326  0.47242929  0.89214200     0.07900
C1637       C  0.15246141  0.35189111  0.81027201    -0.11200
C1638       C  0.17249586  0.35378028  0.80263561     0.06000
C1639       C  0.18208574  0.37301369  0.80384440    -0.10000
C1640       C  0.17146838  0.39008658  0.81098301    -0.11600
C1641       C  0.15132244  0.38819205  0.81785438    -0.01400
C1642       C  0.14208800  0.36890224  0.81803396    -0.10500
C1643       C  0.18306899  0.33612953  0.79270597     0.06000
H1644       H  0.19770764  0.37506246  0.79889608     0.07900
H1645       H  0.17885165  0.40488206  0.81078929     0.11400
H1646       H  0.12640449  0.36722699  0.82300382     0.11600
H1647       H  0.14438142  0.33752027  0.80944595     0.07900
C1648       C  0.17910393  0.31585629  0.79873658    -0.11200
C1649       C  0.18935283  0.29950044  0.78950037    -0.10500
C1650       C  0.20410779  0.30306841  0.77435175    -0.01400
C1651       C  0.20778512  0.32318229  0.76800034    -0.11600
C1652       C  0.19723874  0.33945488  0.77685183    -0.10000
H1653       H  0.16850741  0.31256153  0.81098036     0.07900
H1654       H  0.18632401  0.28413135  0.79478513     0.11600
H1655       H  0.21891286  0.32636792  0.75617268     0.11300
H1656       H  0.20023903  0.35465564  0.77114649     0.07900
C1657       C  0.13674495  0.51572125  0.74868391    -0.11200
C1658       C  0.12046221  0.50185667  0.74980689     0.06000
C1659       C  0.10359243  0.50448172  0.73686129    -0.10000
C1660       C  0.10328029  0.52043647  0.72265049    -0.11600
C1661       C  0.11961312  0.53429637  0.72152515    -0.01400
C1662       C  0.13623202  0.53191059  0.73483272    -0.10500
C1663       C  0.12121759  0.48473748  0.76451166     0.06000
H1664       H  0.09086844  0.49394968  0.73747973     0.07900
H1665       H  0.09025227  0.52199727  0.71260876     0.11400
H1666       H  0.14906551  0.54230960  0.73422663     0.11600
H1667       H  0.14981783  0.51409086  0.75865655     0.07900
C1668       C  0.13854098  0.47215918  0.76554923    -0.11200
C1669       C  0.13968608  0.45650013  0.77999916    -0.10500
C1670       C  0.12367827  0.45338980  0.79394061    -0.01400
C1671       C  0.10624391  0.46585773  0.79272478    -0.11600
C1672       C  0.10494876  0.48126592  0.77801447    -0.10000
H1673       H  0.15120436  0.47448503  0.75516236     0.07900
H1674       H  0.15329534  0.44713895  0.78056158     0.11600
H1675       H  0.09359133  0.46371167  0.80316083     0.11300
H1676       H  0.09147271  0.49082663  0.77752112     0.07900
C1677       C  0.18669004  0.16999751  0.86996615    -0.11200
C1678       C  0.20470586  0.16377865  0.85989725     0.06000
C1679       C  0.21513330  0.14654552  0.86736200    -0.10000
C1680       C  0.20821922  0.13638412  0.88484182    -0.11600
C1681       C  0.19046794  0.14287383  0.89492820    -0.01400
C1682       C  0.17956176  0.15953017  0.88719943    -0.10500
C1683       C  0.21274127  0.17550420  0.84202907     0.06000
H1684       H  0.22878634  0.14102187  0.85985909     0.07900
H1685       H  0.21695451  0.12365350  0.89075800     0.11400
H1686       H  0.16613804  0.16508978  0.89511396     0.11600
H1687       H  0.17844530  0.18342170  0.86501168     0.07900
C1688       C  0.19923582  0.18490015  0.82828559    -0.11200
C1689       C  0.20656215  0.19655754  0.81200949    -0.10500
C1690       C  0.22764302  0.19902500  0.80878493    -0.01400
C1691       C  0.24125516  0.18935769  0.82223871    -0.11600
C1692       C  0.23389248  0.17780592  0.83872504    -0.10000
H1693       H  0.18290171  0.18315661  0.82997309     0.07900
H1694       H  0.19559416  0.20360878  0.80186321     0.11600
H1695       H  0.25757555  0.19098428  0.82022801     0.11300
H1696       H  0.24480620  0.17106904  0.84912419     0.07900
C1697       C  0.40301011  0.04764748  0.03436785    -0.11200
C1698       C  0.40538083  0.06746939  0.04225926     0.06000
C1699       C  0.42477835  0.07658411  0.04154869    -0.10000
C1700       C  0.44139282  0.06615104  0.03290176    -0.11600
C1701       C  0.43896155  0.04632801  0.02491947    -0.01400
C1702       C  0.41955075  0.03721963  0.02584107    -0.10500
C1703       C  0.38730074  0.07886030  0.04999553     0.06000
H1704       H  0.42698457  0.09194040  0.04727794     0.07900
H1705       H  0.45613263  0.07359939  0.03249291     0.11400
H1706       H  0.41709217  0.02193992  0.02000815     0.11600
H1707       H  0.38828522  0.04015707  0.03483287     0.07900
C1708       C  0.36917101  0.07849219  0.03869517    -0.11200
C1709       C  0.35205106  0.08918181  0.04534542    -0.10500
C1710       C  0.35240303  0.10061909  0.06359541    -0.01400
C1711       C  0.37046278  0.10081571  0.07517691    -0.11600
C1712       C  0.38783395  0.09013480  0.06833925    -0.10000
H1713       H  0.36831129  0.07016487  0.02441589     0.07900
H1714       H  0.33847015  0.08847082  0.03597013     0.11600
H1715       H  0.37125611  0.10942234  0.08928088     0.11300
H1716       H  0.40161823  0.09054677  0.07742821     0.07900
C1717       C  0.24451747  0.13898056  0.97764116    -0.11200
C1718       C  0.23977915  0.13152802  0.99718854     0.06000
C1719       C  0.22010238  0.12411514  0.00111343    -0.10000
C1720       C  0.20557086  0.12360146  0.98559668    -0.11600
C1721       C  0.21041318  0.13057532  0.96584931    -0.01400
C1722       C  0.22994576  0.13857285  0.96211519    -0.10500
C1723       C  0.25561963  0.13044730  0.01314749     0.06000
H1724       H  0.21615679  0.11811268  0.01601804     0.07900
H1725       H  0.19064086  0.11741315  0.98903879     0.11400
H1726       H  0.23411494  0.14417964  0.94712462     0.11600
H1727       H  0.25956545  0.14497102  0.97434783     0.07900
C1728       C  0.27497280  0.12265413  0.00837688    -0.11200
C1729       C  0.28977755  0.12073291  0.02349765    -0.10500
C1730       C  0.28557424  0.12668179  0.04371062    -0.01400
C1731       C  0.26623419  0.13468019  0.04844803    -0.11600
C1732       C  0.25134644  0.13645295  0.03330071    -0.10000
H1733       H  0.27851882  0.11764493  0.99300271     0.07900
H1734       H  0.30451615  0.11452945  0.01930688     0.11600
H1735       H  0.26253088  0.13940837  0.06386862     0.11300
H1736       H  0.23652144  0.14258893  0.03729342     0.07900
C1737       C  0.44398155  0.55360916  0.41798409    -0.11200
C1738       C  0.43046936  0.54074737  0.40737650     0.06000
C1739       C  0.42845578  0.52036654  0.41398219    -0.10000
C1740       C  0.44007106  0.51289375  0.43028211    -0.11600
C1741       C  0.45390200  0.52563515  0.44057511    -0.01400
C1742       C  0.45550377  0.54616657  0.43438745    -0.10500
C1743       C  0.41923124  0.54815829  0.38894906     0.06000
H1744       H  0.41788855  0.51009524  0.40651373     0.07900
H1745       H  0.43827894  0.49707682  0.43474275     0.11400
H1746       H  0.46598555  0.55644790  0.44197421     0.11600
H1747       H  0.44613558  0.56929309  0.41324607     0.07900
C1748       C  0.41172429  0.56830302  0.38756187    -0.11200
C1749       C  0.40143335  0.57499698  0.36995352    -0.10500
C1750       C  0.39843154  0.56168468  0.35336345    -0.01400
C1751       C  0.40600612  0.54161142  0.35484590    -0.11600
C1752       C  0.41626786  0.53500559  0.37227035    -0.10000
H1753       H  0.41360211  0.57884191  0.40016410     0.07900
H1754       H  0.39586139  0.59054796  0.36934149     0.11600
H1755       H  0.40419323  0.53085397  0.34241239     0.11300
H1756       H  0.42222386  0.51958896  0.37246582     0.07900
C1757       C  0.66705171  0.37656855  0.71452461    -0.11200
C1758       C  0.66769026  0.36002875  0.70097482     0.06000
C1759       C  0.65637375  0.36107372  0.68273396    -0.10000
C1760       C  0.64513295  0.37873985  0.67792534    -0.11600
C1761       C  0.64490798  0.39547913  0.69141942    -0.01400
C1762       C  0.65586953  0.39397147  0.70985691    -0.10500
C1763       C  0.68067794  0.34219348  0.70610395     0.06000
H1764       H  0.65662452  0.34845856  0.67203594     0.07900
H1765       H  0.63677957  0.37934047  0.66367965     0.11400
H1766       H  0.65601950  0.40635087  0.72082557     0.11600
H1767       H  0.67528641  0.37604886  0.72885744     0.07900
C1768       C  0.70051232  0.34541958  0.71354310    -0.11200
C1769       C  0.71235965  0.32910873  0.72035188    -0.10500
C1770       C  0.70468161  0.30908532  0.71996460    -0.01400
C1771       C  0.68500850  0.30573093  0.71198089    -0.11600
C1772       C  0.67313563  0.32215116  0.70503363    -0.10000
H1773       H  0.70679732  0.36069619  0.71431547     0.07900
H1774       H  0.72747105  0.33228111  0.72622232     0.11600
H1775       H  0.67867946  0.29047374  0.71137236     0.11300
H1776       H  0.65784510  0.31928079  0.69947782     0.07900
C1777       C  0.59382105  0.43470827  0.61127090    -0.11200
C1778       C  0.57786278  0.44907692  0.61211301     0.06000
C1779       C  0.57326206  0.45836881  0.63087284    -0.10000
C1780       C  0.58446429  0.45370806  0.64834061    -0.11600
C1781       C  0.60045789  0.43940999  0.64764309    -0.01400
C1782       C  0.60489778  0.42973865  0.62896593    -0.10500
C1783       C  0.56608688  0.45495322  0.59364293     0.06000
H1784       H  0.56121354  0.46964523  0.63194568     0.07900
H1785       H  0.58056677  0.46139631  0.66247112     0.11400
H1786       H  0.61719313  0.41873621  0.62794804     0.11600
H1787       H  0.59762904  0.42729009  0.59697638     0.07900
C1788       C  0.57603907  0.46061137  0.57548266    -0.11200
C1789       C  0.56486584  0.46829294  0.55890869    -0.10500
C1790       C  0.54353301  0.47047407  0.56021287    -0.01400
C1791       C  0.53359731  0.46416130  0.57816865    -0.11600
C1792       C  0.54472934  0.45648650  0.59465183    -0.10000
H1793       H  0.59250512  0.45975415  0.57437183     0.07900
H1794       H  0.57296322  0.47294890  0.54525820     0.11600
H1795       H  0.51716589  0.46525713  0.57955083     0.11300
H1796       H  0.53664902  0.45198494  0.60837066     0.07900
C1797       C  0.65205111  0.64457126  0.81992536    -0.11200
C1798       C  0.65777311  0.64782994  0.79942695     0.06000
C1799       C  0.65378931  0.63248963  0.78502340    -0.10000
C1800       C  0.64501561  0.61410559  0.79096153    -0.11600
C1801       C  0.64001551  0.61039526  0.81153311    -0.01400
C1802       C  0.64318695  0.62600679  0.82592880    -0.10500
C1803       C  0.66948702  0.66617247  0.79305817     0.06000
H1804       H  0.65830216  0.63427575  0.76920820     0.07900
H1805       H  0.64269702  0.60254391  0.77936087     0.11400
H1806       H  0.63943818  0.62365438  0.84186766     0.11600
H1807       H  0.65477410  0.65621311  0.83135337     0.07900
C1808       C  0.66643395  0.67488484  0.77364591    -0.11200
C1809       C  0.67967591  0.68986642  0.76622635    -0.10500
C1810       C  0.69610007  0.69665523  0.77816809    -0.01400
C1811       C  0.69849193  0.68876279  0.79800463    -0.11600
C1812       C  0.68537543  0.67363823  0.80534156    -0.10000
H1813       H  0.65406950  0.66974567  0.76396722     0.07900
H1814       H  0.67718490  0.69596132  0.75105808     0.11600
H1815       H  0.71092776  0.69379214  0.80765431     0.11300
H1816       H  0.68829914  0.66711866  0.82024800     0.07900
C1817       C  0.60349128  0.53553178  0.88729597    -0.11200
C1818       C  0.58825236  0.54790128  0.89601089     0.06000
C1819       C  0.58503435  0.56754407  0.88778627    -0.10000
C1820       C  0.59616891  0.57422134  0.87075231    -0.11600
C1821       C  0.61045594  0.56125664  0.86144617    -0.01400
C1822       C  0.61428217  0.54204417  0.87011279    -0.10500
C1823       C  0.57528647  0.53994279  0.91299297     0.06000
H1824       H  0.57330749  0.57744375  0.89392224     0.07900
H1825       H  0.59278585  0.58900818  0.86417489     0.11400
H1826       H  0.62536239  0.53182788  0.86327656     0.11600
H1827       H  0.60687284  0.52060640  0.89352110     0.07900
C1828       C  0.56972688  0.51916207  0.91370659    -0.11200
C1829       C  0.55731825  0.51167985  0.92941347    -0.10500
C1830       C  0.54987319  0.52483893  0.94463118    -0.01400
C1831       C  0.55541019  0.54557964  0.94397115    -0.11600
C1832       C  0.56803497  0.55301414  0.92842393    -0.10000
H1833       H  0.57461037  0.50867655  0.90188450     0.07900
H1834       H  0.55322825  0.49565910  0.92940824     0.11600
H1835       H  0.55007880  0.55609776  0.95558300     0.11300
H1836       H  0.57223282  0.56899507  0.92861852     0.07900
C1837       C  0.61732305  0.49768571  0.72662992    -0.11200
C1838       C  0.62654839  0.49329420  0.74549710     0.06000
C1839       C  0.63469666  0.47378589  0.74881761    -0.10000
C1840       C  0.63373633  0.45895864  0.73356637    -0.11600
C1841       C  0.62450093  0.46326583  0.71465786    -0.01400
C1842       C  0.61624247  0.48278522  0.71136447    -0.10500
C1843       C  0.62766662  0.50898025  0.76171995     0.06000
H1844       H  0.64207345  0.47007598  0.76313971     0.07900
H1845       H  0.64026160  0.44408974  0.73665288     0.11400
H1846       H  0.60902852  0.48658697  0.69698821     0.11600
H1847       H  0.61073247  0.51257768  0.72378402     0.07900
C1848       C  0.63321725  0.52910312  0.75694157    -0.11200
C1849       C  0.63393024  0.54399007  0.77217602    -0.10500
C1850       C  0.62895586  0.53908451  0.79249956    -0.01400
C1851       C  0.62374315  0.51884558  0.79732363    -0.11600
C1852       C  0.62314936  0.50393303  0.78208383    -0.10000
H1853       H  0.63707818  0.53330485  0.74141164     0.07900
H1854       H  0.63807784  0.55941634  0.76792471     0.11600
H1855       H  0.61986561  0.51455298  0.81282106     0.11300
H1856       H  0.61871652  0.48853242  0.78614489     0.07900
C1857       C  0.53295177  0.37510901  0.40998233    -0.11200
C1858       C  0.54747491  0.38976015  0.41565609     0.06000
C1859       C  0.56795316  0.38675414  0.40968876    -0.10000
C1860       C  0.57363086  0.36948515  0.39819516    -0.11600
C1861       C  0.55892235  0.35492349  0.39253677    -0.01400
C1862       C  0.53853014  0.35810636  0.39855418    -0.10500
C1863       C  0.54091175  0.40778519  0.42796096     0.06000
H1864       H  0.57953321  0.39781210  0.41374886     0.07900
H1865       H  0.58946719  0.36745187  0.39393224     0.11400
H1866       H  0.52666362  0.34729412  0.39464347     0.11600
H1867       H  0.51717649  0.37653900  0.41469403     0.07900
C1868       C  0.52168342  0.41676997  0.42457069    -0.11200
C1869       C  0.51456908  0.43252099  0.43709168    -0.10500
C1870       C  0.52660989  0.43997543  0.45316344    -0.01400
C1871       C  0.54609010  0.43145492  0.45624141    -0.11600
C1872       C  0.55313295  0.41548539  0.44382817    -0.10000
H1873       H  0.51202325  0.41158115  0.41221004     0.07900
H1874       H  0.49961913  0.43890263  0.43412601     0.11600
H1875       H  0.55574886  0.43685157  0.46852008     0.11300
H1876       H  0.56789219  0.40880110  0.44703494     0.07900
C1877       C  0.52715194  0.25225484  0.37188810    -0.11200
C1878       C  0.50650341  0.25771042  0.36953751     0.06000
C1879       C  0.50151762  0.27845009  0.36695030    -0.10000
C1880       C  0.51674114  0.29333771  0.36711982    -0.11600
C1881       C  0.53726389  0.28773684  0.36932616    -0.01400
C1882       C  0.54238748  0.26709341  0.37147236    -0.10500
C1883       C  0.49032297  0.24182019  0.36981949     0.06000
H1884       H  0.48588658  0.28322893  0.36463355     0.07900
H1885       H  0.51250882  0.30922392  0.36530794     0.11400
H1886       H  0.55813524  0.26249427  0.37348448     0.11600
H1887       H  0.53160175  0.23655437  0.37444402     0.07900
C1888       C  0.49433728  0.22212183  0.36221850    -0.11200
C1889       C  0.47943861  0.20698649  0.36300196    -0.10500
C1890       C  0.46002029  0.21137155  0.37079067    -0.01400
C1891       C  0.45568679  0.23104472  0.37799372    -0.11600
C1892       C  0.47079828  0.24607869  0.37779012    -0.10000
H1893       H  0.50893474  0.21836452  0.35545589     0.07900
H1894       H  0.48296916  0.19190710  0.35716498     0.11600
H1895       H  0.44079516  0.23461320  0.38424691     0.11300
H1896       H  0.46723562  0.26090001  0.38418276     0.07900
C1897       C  0.31835459  0.32906984  0.63217634    -0.11200
C1898       C  0.29845634  0.33024176  0.64021433     0.06000
C1899       C  0.28464677  0.34415941  0.63162619    -0.10000
C1900       C  0.29026518  0.35602794  0.61485181    -0.11600
C1901       C  0.30994520  0.35455249  0.60641976    -0.01400
C1902       C  0.32414241  0.34132516  0.61553321    -0.10500
C1903       C  0.29160671  0.31664828  0.65703476     0.06000
H1904       H  0.26920522  0.34530588  0.63742763     0.07900
H1905       H  0.27899880  0.36609500  0.60814128     0.11400
H1906       H  0.33933884  0.33977189  0.60921450     0.11600
H1907       H  0.32931807  0.31853146  0.63864269     0.07900
C1908       C  0.29454128  0.29540678  0.65589480    -0.11200
C1909       C  0.28654950  0.28251510  0.67102595    -0.10500
C1910       C  0.27588200  0.29069263  0.68778506    -0.01400
C1911       C  0.27333509  0.31196069  0.68908539    -0.11600
C1912       C  0.28090857  0.32476279  0.67377832    -0.10000
H1913       H  0.30256184  0.28876129  0.64303456     0.07900
H1914       H  0.28890398  0.26619324  0.66975466     0.11600
H1915       H  0.26519922  0.31869006  0.70183262     0.11300
H1916       H  0.27843714  0.34107094  0.67502764     0.07900
C1917       C  0.37690101  0.40842503  0.53218660    -0.11200
C1918       C  0.39267665  0.41176407  0.54626961     0.06000
C1919       C  0.39028175  0.40425761  0.56632851    -0.10000
C1920       C  0.37233865  0.39396875  0.57214042    -0.11600
C1921       C  0.35643951  0.39108664  0.55801464    -0.01400
C1922       C  0.35918093  0.39821208  0.53791404    -0.10500
C1923       C  0.41092534  0.42385441  0.53991675     0.06000
H1924       H  0.40222053  0.40640933  0.57753735     0.07900
H1925       H  0.37074939  0.38868519  0.58772914     0.11400
H1926       H  0.34739410  0.39629906  0.52649723     0.11600
H1927       H  0.37789907  0.41429499  0.51676278     0.07900
C1928       C  0.41860651  0.42224317  0.51987319    -0.11200
C1929       C  0.43403741  0.43525638  0.51296340    -0.10500
C1930       C  0.44243568  0.45008554  0.52597552    -0.01400
C1931       C  0.43542599  0.45114825  0.54629193    -0.11600
C1932       C  0.41981549  0.43822707  0.55316455    -0.10000
H1933       H  0.41250230  0.41103498  0.50936637     0.07900
H1934       H  0.43929293  0.43376566  0.49734188     0.11600
H1935       H  0.44165439  0.46231745  0.55677433     0.11300
H1936       H  0.41420236  0.44004170  0.56861955     0.07900
C1937       C  0.24209302  0.37122330  0.47446299    -0.11200
C1938       C  0.23804240  0.37868683  0.49416486     0.06000
C1939       C  0.21846076  0.38609921  0.49871802    -0.10000
C1940       C  0.20318942  0.38601557  0.48383495    -0.11600
C1941       C  0.20716566  0.37836883  0.46413153    -0.01400
C1942       C  0.22681902  0.37101703  0.45962032    -0.10500
C1943       C  0.25421809  0.37855474  0.50991885     0.06000
H1944       H  0.21502533  0.39211493  0.51375110     0.07900
H1945       H  0.18824560  0.39184300  0.48782960     0.11400
H1946       H  0.23041936  0.36498123  0.44463917     0.11600
H1947       H  0.25701708  0.36522212  0.47063783     0.07900
C1948       C  0.25010315  0.37145453  0.52973839    -0.11200
C1949       C  0.26559909  0.37065435  0.54436807    -0.10500
C1950       C  0.28547984  0.37710046  0.53949582    -0.01400
C1951       C  0.28945484  0.38451226  0.51972551    -0.11600
C1952       C  0.27400822  0.38515606  0.50508729    -0.10000
H1953       H  0.23499188  0.36611759  0.53378019     0.07900
H1954       H  0.26201130  0.36487245  0.55944350     0.11600
H1955       H  0.30456842  0.38964154  0.51544216     0.11300
H1956       H  0.27751018  0.39089932  0.48997228     0.07900
C1957       C  0.40498795  0.95378666  0.46250748    -0.11200
C1958       C  0.40792908  0.93449733  0.45356547     0.06000
C1959       C  0.42791931  0.92716231  0.45108746    -0.10000
C1960       C  0.44458865  0.93857364  0.45818668    -0.11600
C1961       C  0.44157983  0.95765672  0.46766002    -0.01400
C1962       C  0.42158791  0.96526223  0.46936980    -0.10500
C1963       C  0.39001118  0.92162032  0.44836474     0.06000
H1964       H  0.43058710  0.91229840  0.44433050     0.07900
H1965       H  0.45980251  0.93236076  0.45645247     0.11400
H1966       H  0.41868664  0.97994674  0.47641647     0.11600
H1967       H  0.38974335  0.95989157  0.46442087     0.07900
C1968       C  0.37430188  0.91934067  0.46272168    -0.11200
C1969       C  0.35715925  0.90759602  0.45825866    -0.10500
C1970       C  0.35507139  0.89785015  0.43918788    -0.01400
C1971       C  0.37091991  0.89991946  0.42479757    -0.11600
C1972       C  0.38831735  0.91161066  0.42940889    -0.10000
H1973       H  0.37534359  0.92659823  0.47756258     0.07900
H1974       H  0.34541981  0.90636194  0.46983933     0.11600
H1975       H  0.36982359  0.89265837  0.40997450     0.11300
H1976       H  0.40024981  0.91316210  0.41806164     0.07900
C1977       C  0.42032437  0.03665140  0.62015110    -0.11200
C1978       C  0.42011128  0.05038225  0.60379298     0.06000
C1979       C  0.40710350  0.06746305  0.60465249    -0.10000
C1980       C  0.39481971  0.07088147  0.62196052    -0.11600
C1981       C  0.39520313  0.05705445  0.63840418    -0.01400
C1982       C  0.40807089  0.03988655  0.63713660    -0.10500
C1983       C  0.43343741  0.04615102  0.58603072     0.06000
H1984       H  0.40667580  0.07822836  0.59211479     0.07900
H1985       H  0.38504880  0.08420622  0.62244709     0.11400
H1986       H  0.40887114  0.02880895  0.64937573     0.11600
H1987       H  0.42990884  0.02317356  0.61971815     0.07900
C1988       C  0.45380611  0.04037438  0.58930990    -0.11200
C1989       C  0.46566912  0.03288219  0.57329561    -0.10500
C1990       C  0.45744622  0.03099537  0.55358156    -0.01400
C1991       C  0.43737062  0.03779847  0.55004896    -0.11600
C1992       C  0.42546139  0.04534757  0.56616511    -0.10000
H1993       H  0.46035525  0.04106546  0.60448222     0.07900
H1994       H  0.48116762  0.02813856  0.57650044     0.11600
H1995       H  0.43067408  0.03675711  0.53497164     0.11300
H1996       H  0.40975254  0.04960175  0.56331105     0.07900
C1997       C  0.57359251  0.97834121  0.41120869    -0.11200
C1998       C  0.57346491  0.95741890  0.40643779     0.06000
C1999       C  0.56264023  0.94391920  0.41904274    -0.10000
C2000       C  0.55113878  0.95141345  0.43544206    -0.11600
C2001       C  0.55043093  0.97251569  0.43957723    -0.01400
C2002       C  0.56223882  0.98581063  0.42761438    -0.10500
C2003       C  0.58319527  0.95025520  0.38733797     0.06000
H2004       H  0.56231414  0.92773300  0.41564656     0.07900
H2005       H  0.54235761  0.94074637  0.44451677     0.11400
H2006       H  0.56221069  0.00209749  0.43049578     0.11600
H2007       H  0.58210641  0.98901214  0.40187317     0.07900
C2008       C  0.57962697  0.96106043  0.36923496    -0.11200
C2009       C  0.58950704  0.95558586  0.35126270    -0.10500
C2010       C  0.60331958  0.93916622  0.35088915    -0.01400
C2011       C  0.60618056  0.92761498  0.36876381    -0.11600
C2012       C  0.59612358  0.93311447  0.38690235    -0.10000
H2013       H  0.56929164  0.97397340  0.36903746     0.07900
H2014       H  0.58659945  0.96458509  0.33770369     0.11600
H2015       H  0.61668869  0.91485398  0.36891435     0.11300
H2016       H  0.59897121  0.92446755  0.40069961     0.07900
C2017       C  0.48149255  0.07808574  0.41541254    -0.11200
C2018       C  0.46321079  0.08857045  0.41976197     0.06000
C2019       C  0.45247642  0.08350549  0.43766971    -0.10000
C2020       C  0.45971645  0.06835950  0.45077874    -0.11600
C2021       C  0.47807109  0.05812701  0.44654692    -0.01400
C2022       C  0.48894039  0.06316930  0.42876848    -0.10500
C2023       C  0.45589315  0.10548095  0.40640489     0.06000
H2024       H  0.43867717  0.09155980  0.44187852     0.07900
H2025       H  0.45110014  0.06491523  0.46447902     0.11400
H2026       H  0.50303516  0.05537036  0.42503591     0.11600
H2027       H  0.49004291  0.08131204  0.40163580     0.07900
C2028       C  0.46995322  0.11856851  0.39686554    -0.11200
C2029       C  0.46329323  0.13583197  0.38636084    -0.10500
C2030       C  0.44240720  0.14060254  0.38521861    -0.01400
C2031       C  0.42821412  0.12696980  0.39366991    -0.11600
C2032       C  0.43489047  0.10956281  0.40413350    -0.10000
H2033       H  0.48621289  0.11613100  0.39835536     0.07900
H2034       H  0.47464139  0.14592819  0.37982861     0.11600
H2035       H  0.41202680  0.13021053  0.39300953     0.11300
H2036       H  0.42358109  0.09955847  0.41083803     0.07900
C2037       C  0.37980988  0.70526708  0.67926177    -0.11200
C2038       C  0.36157390  0.69437109  0.67681095     0.06000
C2039       C  0.36096314  0.67833217  0.66245478    -0.10000
C2040       C  0.37831633  0.67345524  0.65072992    -0.11600
C2041       C  0.39643417  0.68473167  0.65301372    -0.01400
C2042       C  0.39692413  0.70053807  0.66760067    -0.10500
C2043       C  0.34336507  0.70051897  0.68894968     0.06000
H2044       H  0.34709771  0.66961514  0.66031510     0.07900
H2045       H  0.37741417  0.66123605  0.63961451     0.11400
H2046       H  0.41054969  0.70958722  0.66992026     0.11600
H2047       H  0.38073245  0.71790726  0.68990562     0.07900
C2048       C  0.34557532  0.70591797  0.70962048    -0.11200
C2049       C  0.32927884  0.71425371  0.72055791    -0.10500
C2050       C  0.31025342  0.71734623  0.71116863    -0.01400
C2051       C  0.30775172  0.71117275  0.69071239    -0.11600
C2052       C  0.32415790  0.70284296  0.67970987    -0.10000
H2053       H  0.36008803  0.70399406  0.71727330     0.07900
H2054       H  0.33168483  0.71845171  0.73638030     0.11600
H2055       H  0.29324663  0.71317328  0.68307760     0.11300
H2056       H  0.32203166  0.69895689  0.66376981     0.07900
C2057       C  0.43367944  0.60817164  0.59471160    -0.11200
C2058       C  0.44765866  0.60985250  0.57840939     0.06000
C2059       C  0.45602808  0.62910409  0.57407768    -0.10000
C2060       C  0.45106298  0.64607407  0.58596510    -0.11600
C2061       C  0.43749081  0.64440311  0.60254533    -0.01400
C2062       C  0.42852837  0.62533051  0.60658680    -0.10500
C2063       C  0.45431892  0.59169160  0.56632089     0.06000
H2064       H  0.46701764  0.63097362  0.56185676     0.07900
H2065       H  0.45817434  0.66054170  0.58229772     0.11400
H2066       H  0.41805558  0.62354596  0.61926737     0.11600
H2067       H  0.42681841  0.59358103  0.59833075     0.07900
C2068       C  0.45863472  0.57297765  0.57593178    -0.11200
C2069       C  0.46670471  0.55655279  0.56475470    -0.10500
C2070       C  0.47070971  0.55848920  0.54371688    -0.01400
C2071       C  0.46589331  0.57703745  0.53404612    -0.11600
C2072       C  0.45775291  0.59336604  0.54516690    -0.10000
H2073       H  0.45638503  0.57122816  0.59222619     0.07900
H2074       H  0.47016337  0.54246440  0.57267025     0.11600
H2075       H  0.46844798  0.57899040  0.51781496     0.11300
H2076       H  0.45426570  0.60741418  0.53718968     0.07900
C2077       C  0.63721413  0.82137996  0.65925599    -0.11200
C2078       C  0.63752668  0.80360766  0.67133759     0.06000
C2079       C  0.61984001  0.79179564  0.67293423    -0.10000
C2080       C  0.60231862  0.79719012  0.66234687    -0.11600
C2081       C  0.60191815  0.81453039  0.64961531    -0.01400
C2082       C  0.61951592  0.82677019  0.64834408    -0.10500
C2083       C  0.65606368  0.79672463  0.68221781     0.06000
H2084       H  0.61958852  0.77824871  0.68242706     0.07900
H2085       H  0.58908100  0.78745484  0.66406721     0.11400
H2086       H  0.61971352  0.84020062  0.63871379     0.11600
H2087       H  0.65076517  0.83073438  0.65787558     0.07900
C2088       C  0.66259649  0.77640542  0.68010665    -0.11200
C2089       C  0.67854064  0.76884743  0.69200390    -0.10500
C2090       C  0.68831484  0.78143200  0.70635659    -0.01400
C2091       C  0.68207744  0.80195150  0.70813840    -0.11600
C2092       C  0.66610931  0.80954580  0.69611577    -0.10000
H2093       H  0.65507480  0.76625109  0.66943228     0.07900
H2094       H  0.68303002  0.75304348  0.69011587     0.11600
H2095       H  0.68927221  0.81203835  0.71908509     0.11300
H2096       H  0.66112524  0.82518183  0.69817841     0.07900
C2097       C  0.56734626  0.89094106  0.59004582    -0.11200
C2098       C  0.54934369  0.89140011  0.57830861     0.06000
C2099       C  0.53586527  0.87485207  0.57949258    -0.10000
C2100       C  0.54026833  0.85810766  0.59174479    -0.11600
C2101       C  0.55836498  0.85725939  0.60328928    -0.01400
C2102       C  0.57188476  0.87393253  0.60237449    -0.10500
C2103       C  0.54404345  0.90891395  0.56489441     0.06000
H2104       H  0.52166969  0.87491986  0.57103226     0.07900
H2105       H  0.52932395  0.84573627  0.59203146     0.11400
H2106       H  0.58590831  0.87382007  0.61110081     0.11600
H2107       H  0.57800426  0.90355285  0.58942797     0.07900
C2108       C  0.54561586  0.92913228  0.57187971    -0.11200
C2109       C  0.53810357  0.94529393  0.56002648    -0.10500
C2110       C  0.52900443  0.94153908  0.54090274    -0.01400
C2111       C  0.52822851  0.92137039  0.53363186    -0.11600
C2112       C  0.53564654  0.90529007  0.54546577    -0.10000
H2113       H  0.55193270  0.93236679  0.58681550     0.07900
H2114       H  0.53918109  0.96069153  0.56595864     0.11600
H2115       H  0.52158934  0.91792024  0.51888411     0.11300
H2116       H  0.53452159  0.88989001  0.53953343     0.07900
C2117       C  0.50108637  0.77812186  0.62003576    -0.11200
C2118       C  0.50614858  0.75867676  0.62750261     0.06000
C2119       C  0.52590769  0.75508016  0.63483423    -0.10000
C2120       C  0.54037965  0.77067279  0.63477013    -0.11600
C2121       C  0.53543891  0.79012601  0.62714903    -0.01400
C2122       C  0.51565081  0.79369111  0.61972816    -0.10500
C2123       C  0.49086452  0.74213502  0.62766965     0.06000
H2124       H  0.53007513  0.74024583  0.64083063     0.07900
H2125       H  0.55549609  0.76740908  0.64057572     0.11400
H2126       H  0.51137986  0.80851903  0.61380022     0.11600
H2127       H  0.48593644  0.78117059  0.61419301     0.07900
C2128       C  0.47126359  0.74567078  0.63550809    -0.11200
C2129       C  0.45683183  0.73002033  0.63577008    -0.10500
C2130       C  0.46164483  0.71060565  0.62792309    -0.01400
C2131       C  0.48128751  0.70710146  0.62005431    -0.11600
C2132       C  0.49581659  0.72270031  0.62006576    -0.10000
H2133       H  0.46719577  0.76049405  0.64163478     0.07900
H2134       H  0.44182560  0.73321276  0.64193418     0.11600
H2135       H  0.48547012  0.69228768  0.61399559     0.11300
H2136       H  0.51084867  0.71968322  0.61386864     0.07900
C2137       C  0.30256024  0.18336764  0.18001985    -0.11200
C2138       C  0.28932460  0.17654547  0.16453378     0.06000
C2139       C  0.26882370  0.18306113  0.16512813    -0.10000
C2140       C  0.26173944  0.19576474  0.18080528    -0.11600
C2141       C  0.27500610  0.20265026  0.19616315    -0.01400
C2142       C  0.29551971  0.19634144  0.19555886    -0.10500
C2143       C  0.29672733  0.16291869  0.14769108     0.06000
H2144       H  0.25821797  0.17864262  0.15326583     0.07900
H2145       H  0.24589934  0.20047930  0.18069404     0.11400
H2146       H  0.30611445  0.20126125  0.20724859     0.11600
H2147       H  0.31833868  0.17850655  0.18031153     0.07900
C2148       C  0.31663433  0.16474606  0.13961136    -0.11200
C2149       C  0.32277254  0.15305670  0.12266184    -0.10500
C2150       C  0.30903776  0.13955362  0.11333177    -0.01400
C2151       C  0.28953924  0.13708977  0.12187480    -0.11600
C2152       C  0.28354388  0.14840909  0.13893412    -0.10000
H2153       H  0.32718968  0.17585912  0.14575714     0.07900
H2154       H  0.33776037  0.15547822  0.11611555     0.11600
H2155       H  0.27866463  0.12673895  0.11493953     0.11300
H2156       H  0.26836300  0.14602143  0.14499937     0.07900
C2157       C  0.34706269  0.35834298  0.18908960    -0.11200
C2158       C  0.33383149  0.35878738  0.20607867     0.06000
C2159       C  0.33156054  0.37711441  0.21687258    -0.10000
C2160       C  0.34141651  0.39477148  0.21048791    -0.11600
C2161       C  0.35403659  0.39482421  0.19304212    -0.01400
C2162       C  0.35702694  0.37628385  0.18253663    -0.10500
C2163       C  0.32119164  0.34092812  0.21221881     0.06000
H2164       H  0.32182623  0.37788172  0.23024191     0.07900
H2165       H  0.33875708  0.40854610  0.21924654     0.11400
H2166       H  0.36681077  0.37569972  0.16921147     0.11600
H2167       H  0.34913159  0.34434731  0.18052019     0.07900
C2168       C  0.30045269  0.34393739  0.21676586    -0.11200
C2169       C  0.28842010  0.32798287  0.22405529    -0.10500
C2170       C  0.29670694  0.30842440  0.22698823    -0.01400
C2171       C  0.31740625  0.30518465  0.22204427    -0.11600
C2172       C  0.32954128  0.32130481  0.21466857    -0.10000
H2173       H  0.29349205  0.35880251  0.21475373     0.07900
H2174       H  0.27254526  0.33106724  0.22746288     0.11600
H2175       H  0.32425960  0.29027804  0.22406135     0.11300
H2176       H  0.34551075  0.31858585  0.21139360     0.07900
C2177       C  0.33736409  0.20558696  0.30523777    -0.11200
C2178       C  0.33648422  0.20759402  0.32655310     0.06000
C2179       C  0.31972215  0.21758769  0.33547618    -0.10000
C2180       C  0.30401585  0.22532863  0.32322650    -0.11600
C2181       C  0.30510269  0.22363542  0.30184287    -0.01400
C2182       C  0.32193880  0.21368099  0.29299864    -0.10500
C2183       C  0.35374800  0.20036784  0.33915466     0.06000
H2184       H  0.31880583  0.21936662  0.35190093     0.07900
H2185       H  0.29122715  0.23295148  0.33043819     0.11400
H2186       H  0.32313822  0.21204162  0.27657710     0.11600
H2187       H  0.35028369  0.19819070  0.29801313     0.07900
C2188       C  0.36165730  0.18057749  0.33654754    -0.11200
C2189       C  0.37957323  0.17468897  0.34656520    -0.10500
C2190       C  0.39007070  0.18867937  0.35893744    -0.01400
C2191       C  0.38170662  0.20818661  0.36213686    -0.11600
C2192       C  0.36358736  0.21390104  0.35250751    -0.10000
H2193       H  0.35426024  0.16989882  0.32631839     0.07900
H2194       H  0.38582608  0.15964137  0.34370809     0.11600
H2195       H  0.38954603  0.21924497  0.37160820     0.11300
H2196       H  0.35785086  0.22927428  0.35462750     0.07900
C2197       C  0.21444412  0.33219689  0.32683284    -0.11200
C2198       C  0.20358016  0.32348328  0.34318250     0.06000
C2199       C  0.20051064  0.30226410  0.34338463    -0.10000
C2200       C  0.20854983  0.28995800  0.32780559    -0.11600
C2201       C  0.21944459  0.29865368  0.31143680    -0.01400
C2202       C  0.22206239  0.31994717  0.31098640    -0.10500
C2203       C  0.19660147  0.33630692  0.36060258     0.06000
H2204       H  0.19238515  0.29514582  0.35591361     0.07900
H2205       H  0.20618825  0.27360737  0.32853085     0.11400
H2206       H  0.23041827  0.32707855  0.29862258     0.11600
H2207       H  0.21704934  0.34851888  0.32635313     0.07900
C2208       C  0.21053899  0.34908261  0.37063516    -0.11200
C2209       C  0.20467332  0.36005055  0.38799160    -0.10500
C2210       C  0.18460365  0.35884965  0.39555842    -0.01400
C2211       C  0.17037459  0.34670343  0.38507653    -0.11600
C2212       C  0.17640216  0.33531072  0.36788288    -0.10000
H2213       H  0.22621429  0.35001499  0.36545679     0.07900
H2214       H  0.21600549  0.36924963  0.39575579     0.11600
H2215       H  0.15488680  0.34532174  0.39068428     0.11300
H2216       H  0.16536392  0.32557831  0.36036242     0.07900
C2217       C  0.21729946  0.66710818  0.18053017    -0.11200
C2218       C  0.20510437  0.67484493  0.16466160     0.06000
C2219       C  0.20049667  0.69579258  0.16442471    -0.10000
C2220       C  0.20848821  0.70885030  0.17934114    -0.11600
C2221       C  0.22091407  0.70116411  0.19504373    -0.01400
C2222       C  0.22492862  0.68009967  0.19570839    -0.10500
C2223       C  0.19865598  0.66151708  0.14746565     0.06000
H2224       H  0.19132041  0.70219046  0.15225943     0.07900
H2225       H  0.20499534  0.72499570  0.17856556     0.11400
H2226       H  0.23444496  0.67376268  0.20764217     0.11600
H2227       H  0.22106747  0.65101598  0.18106850     0.07900
C2228       C  0.21311917  0.64915676  0.13760673    -0.11200
C2229       C  0.20797587  0.63844660  0.11990240    -0.10500
C2230       C  0.18815518  0.63957682  0.11176320    -0.01400
C2231       C  0.17332540  0.65102802  0.12222087    -0.11600
C2232       C  0.17859665  0.66209329  0.13982173    -0.10000
H2233       H  0.22871293  0.64855400  0.14303627     0.07900
H2234       H  0.21973875  0.62973218  0.11218851     0.11600
H2235       H  0.15799433  0.65229962  0.11620539     0.11300
H2236       H  0.16714170  0.67145336  0.14722223     0.07900
C2237       C  0.17987938  0.69424730  0.31835117    -0.11200
C2238       C  0.16493251  0.70717696  0.32676799     0.06000
C2239       C  0.16542200  0.72806841  0.32163712    -0.10000
C2240       C  0.18034526  0.73579473  0.30847500    -0.11600
C2241       C  0.19506387  0.72282496  0.29982750    -0.01400
C2242       C  0.19472275  0.70196406  0.30500429    -0.10500
C2243       C  0.14839444  0.69903233  0.34021509     0.06000
H2244       H  0.15393492  0.73847331  0.32737881     0.07900
H2245       H  0.18010200  0.75190819  0.30477943     0.11400
H2246       H  0.20596270  0.69156474  0.29875495     0.11600
H2247       H  0.18017804  0.67816159  0.32212516     0.07900
C2248       C  0.13946597  0.67976572  0.33654328    -0.11200
C2249       C  0.12204654  0.67355777  0.34739708    -0.10500
C2250       C  0.11322095  0.68658731  0.36192726    -0.01400
C2251       C  0.12281229  0.70517650  0.36648426    -0.11600
C2252       C  0.14031445  0.71121567  0.35596687    -0.10000
H2253       H  0.14514517  0.67001063  0.32445655     0.07900
H2254       H  0.11464253  0.65932798  0.34338372     0.11600
H2255       H  0.11617572  0.71549543  0.37760747     0.11300
H2256       H  0.14707033  0.72582759  0.35970079     0.07900
C2257       C  0.30569657  0.66322365  0.29390096    -0.11200
C2258       C  0.32695302  0.66556782  0.29291324     0.06000
C2259       C  0.33504481  0.68337257  0.28406790    -0.10000
C2260       C  0.32207310  0.69855096  0.27636065    -0.11600
C2261       C  0.30077396  0.69597233  0.27693803    -0.01400
C2262       C  0.29276530  0.67815812  0.28586357    -0.10500
C2263       C  0.34046259  0.64872938  0.29976707     0.06000
H2264       H  0.35140404  0.68549148  0.28309433     0.07900
H2265       H  0.32870625  0.71211457  0.26962681     0.11400
H2266       H  0.27643858  0.67575213  0.28668329     0.11600
H2267       H  0.29908414  0.64952461  0.30038532     0.07900
C2268       C  0.33756147  0.63930376  0.31887210    -0.11200
C2269       C  0.34874855  0.62183189  0.32418125    -0.10500
C2270       C  0.36261050  0.61327563  0.31024652    -0.01400
C2271       C  0.36595387  0.62307987  0.29145876    -0.11600
C2272       C  0.35519417  0.64078071  0.28637921    -0.10000
H2273       H  0.32626346  0.64516952  0.32944192     0.07900
H2274       H  0.34571236  0.61434594  0.33861623     0.11600
H2275       H  0.37646806  0.61663719  0.28041546     0.11300
H2276       H  0.35757986  0.64762402  0.27150749     0.07900
C2277       C  0.30322796  0.81598747  0.32531601    -0.11200
C2278       C  0.29005390  0.82157554  0.34134179     0.06000
C2279       C  0.26968232  0.81472263  0.34072233    -0.10000
C2280       C  0.26257836  0.80304103  0.32432120    -0.11600
C2281       C  0.27573670  0.79760241  0.30827651    -0.01400
C2282       C  0.29618327  0.80404810  0.30904793    -0.10500
C2283       C  0.29733090  0.83466976  0.35851983     0.06000
H2284       H  0.25919680  0.81821839  0.35302545     0.07900
H2285       H  0.24683128  0.79802921  0.32434885     0.11400
H2286       H  0.30670517  0.80009894  0.29690382     0.11600
H2287       H  0.31891355  0.82114191  0.32511599     0.07900
C2288       C  0.31732740  0.83289990  0.36629486    -0.11200
C2289       C  0.32358808  0.84461889  0.38312175    -0.10500
C2290       C  0.30986429  0.85804136  0.39261112    -0.01400
C2291       C  0.29018569  0.86027777  0.38449736    -0.11600
C2292       C  0.28406216  0.84892192  0.36756420    -0.10000
H2293       H  0.32791141  0.82194550  0.35987512     0.07900
H2294       H  0.33872848  0.84241624  0.38935425     0.11600
H2295       H  0.27934789  0.87060759  0.39155483     0.11300
H2296       H  0.26879515  0.85119666  0.36170354     0.07900
C2297       C  0.15292743  0.86000548  0.18521093    -0.11200
C2298       C  0.16741136  0.86070423  0.20111074     0.06000
C2299       C  0.17170950  0.87962414  0.21020733    -0.10000
C2300       C  0.16145072  0.89724720  0.20413546    -0.11600
C2301       C  0.14656887  0.89661346  0.18868045    -0.01400
C2302       C  0.14258641  0.87782292  0.17903857    -0.10500
C2303       C  0.17816029  0.84203331  0.20853501     0.06000
H2304       H  0.18312205  0.88083480  0.22209704     0.07900
H2305       H  0.16519794  0.91147140  0.21169892     0.11400
H2306       H  0.13116336  0.87680975  0.16714441     0.11600
H2307       H  0.14926625  0.84562774  0.17790971     0.07900
C2308       C  0.18128881  0.83907677  0.22959897    -0.11200
C2309       C  0.19285430  0.82261328  0.23676542    -0.10500
C2310       C  0.20172601  0.80865997  0.22306517    -0.01400
C2311       C  0.19812995  0.81126203  0.20199601    -0.11600
C2312       C  0.18638776  0.82769524  0.19482365    -0.10000
H2313       H  0.17490315  0.84966646  0.24059757     0.07900
H2314       H  0.19518015  0.82106827  0.25306557     0.11600
H2315       H  0.20462250  0.80073995  0.19099838     0.11300
H2316       H  0.18434006  0.82958032  0.17852182     0.07900
C2317       C  0.09149115  0.06819063  0.39118856    -0.11200
C2318       C  0.08568650  0.04763834  0.39392919     0.06000
C2319       C  0.08905745  0.03380188  0.37790235    -0.10000
C2320       C  0.09758990  0.04025553  0.35956556    -0.11600
C2321       C  0.10290947  0.06082824  0.35650083    -0.01400
C2322       C  0.10006491  0.07472818  0.37263089    -0.10500
C2323       C  0.07488042  0.04056172  0.41265873     0.06000
H2324       H  0.08440817  0.01799589  0.37917114     0.07900
H2325       H  0.09961867  0.02901608  0.34759312     0.11400
H2326       H  0.10404099  0.09066533  0.37077384     0.11600
H2327       H  0.08926322  0.07923288  0.40330181     0.07900
C2328       C  0.07776867  0.02055145  0.41999153    -0.11200
C2329       C  0.06533628  0.01268167  0.43544239    -0.10500
C2330       C  0.04994117  0.02474340  0.44419920    -0.01400
C2331       C  0.04786175  0.04514525  0.43778422    -0.11600
C2332       C  0.06012462  0.05293844  0.42213102    -0.10000
H2333       H  0.08937243  0.01075433  0.41345267     0.07900
H2334       H  0.06760504  0.99704964  0.44032073     0.11600
H2335       H  0.03624801  0.05491929  0.44435451     0.11300
H2336       H  0.05734700  0.06833786  0.41682150     0.07900
C2337       C  0.15900991  0.13808491  0.31930584    -0.11200
C2338       C  0.15950884  0.14536622  0.29904353     0.06000
C2339       C  0.14676122  0.13602757  0.28451270    -0.10000
C2340       C  0.13507521  0.11900596  0.28963934    -0.11600
C2341       C  0.13541833  0.11107553  0.30955080    -0.01400
C2342       C  0.14694636  0.12117299  0.32453938    -0.10500
C2343       C  0.17386852  0.16187482  0.29264720     0.06000
H2344       H  0.14607024  0.14160904  0.26897045     0.07900
H2345       H  0.12605858  0.11174166  0.27783141     0.11400
H2346       H  0.14752189  0.11533556  0.34000225     0.11600
H2347       H  0.16862844  0.14480979  0.33092748     0.07900
C2348       C  0.17906055  0.17799139  0.30590290    -0.11200
C2349       C  0.19252605  0.19336875  0.29957072    -0.10500
C2350       C  0.20082638  0.19313061  0.27975420    -0.01400
C2351       C  0.19579180  0.17700487  0.26659264    -0.11600
C2352       C  0.18269766  0.16148194  0.27301717    -0.10000
H2353       H  0.17247015  0.17895030  0.32104012     0.07900
H2354       H  0.19609030  0.20568850  0.31001971     0.11600
H2355       H  0.20218250  0.17625135  0.25134209     0.11300
H2356       H  0.17968022  0.14903395  0.26256863     0.07900
C2357       C  0.11412052  0.99959784  0.21926503    -0.11200
C2358       C  0.11980526  0.99592997  0.23956613     0.06000
C2359       C  0.12727418  0.97656854  0.24499820    -0.10000
C2360       C  0.12905157  0.96112687  0.23033282    -0.11600
C2361       C  0.12314195  0.96471573  0.21002456    -0.01400
C2362       C  0.11566604  0.98413926  0.20467391    -0.10500
C2363       C  0.11797176  0.01229518  0.25502744     0.06000
H2364       H  0.13192480  0.97346354  0.26056088     0.07900
H2365       H  0.13484007  0.94634826  0.23494560     0.11400
H2366       H  0.11099285  0.98745811  0.18916675     0.11600
H2367       H  0.10819068  0.01435863  0.21475425     0.07900
C2368       C  0.12539417  0.03198978  0.25094672    -0.11200
C2369       C  0.12433766  0.04724394  0.26585139    -0.10500
C2370       C  0.11572246  0.04310344  0.28508436    -0.01400
C2371       C  0.10773996  0.02351907  0.28887362    -0.11600
C2372       C  0.10894009  0.00826104  0.27402798    -0.10000
H2373       H  0.13248500  0.03542575  0.23639723     0.07900
H2374       H  0.13062977  0.06214034  0.26242525     0.11600
H2375       H  0.10085695  0.01982014  0.30345345     0.11300
H2376       H  0.10282105  0.99327111  0.27738852     0.07900
C2377       C  0.53548428  0.61591590  0.10257123    -0.11200
C2378       C  0.54869716  0.60794961  0.08767219     0.06000
C2379       C  0.56768329  0.61748142  0.08447109    -0.10000
C2380       C  0.57304023  0.63503810  0.09552349    -0.11600
C2381       C  0.55927334  0.64358496  0.10956346    -0.01400
C2382       C  0.54061639  0.63368355  0.11321713    -0.10500
C2383       C  0.54199710  0.59061153  0.07465864     0.06000
H2384       H  0.57818421  0.61155230  0.07314181     0.07900
H2385       H  0.58742761  0.64252407  0.09233071     0.11400
H2386       H  0.52975100  0.64002777  0.12397266     0.11600
H2387       H  0.52073828  0.60895717  0.10527679     0.07900
C2388       C  0.53304707  0.57316273  0.08336651    -0.11200
C2389       C  0.52592909  0.55725488  0.07095482    -0.10500
C2390       C  0.52723984  0.55864433  0.04955209    -0.01400
C2391       C  0.53608167  0.57618247  0.04087236    -0.11600
C2392       C  0.54353288  0.59190108  0.05329383    -0.10000
H2393       H  0.53165058  0.57180839  0.09979731     0.07900
H2394       H  0.51917339  0.54396773  0.07810595     0.11600
H2395       H  0.53739014  0.57769557  0.02444983     0.11300
H2396       H  0.55009644  0.60530781  0.04618040     0.07900
C2397       C  0.65380999  0.71962625  0.19829405    -0.11200
C2398       C  0.65715600  0.71186583  0.17858352     0.06000
C2399       C  0.67721878  0.71052347  0.17116147    -0.10000
C2400       C  0.69363371  0.71721770  0.18316593    -0.11600
C2401       C  0.69025917  0.72512141  0.20290088    -0.01400
C2402       C  0.67014084  0.72607806  0.21034039    -0.10500
C2403       C  0.63948477  0.70599302  0.16575779     0.06000
H2404       H  0.68012585  0.70470535  0.15594193     0.07900
H2405       H  0.70893603  0.71622196  0.17699574     0.11400
H2406       H  0.66694352  0.73194646  0.22548084     0.11600
H2407       H  0.63847358  0.72066774  0.20439763     0.07900
C2408       C  0.63810149  0.68655033  0.15674834    -0.11200
C2409       C  0.62041353  0.68074929  0.14611455    -0.10500
C2410       C  0.60394550  0.69441236  0.14414298    -0.01400
C2411       C  0.60586208  0.71412278  0.15255410    -0.11600
C2412       C  0.62332233  0.71976795  0.16329437    -0.10000
H2413       H  0.65040477  0.67565667  0.15852183     0.07900
H2414       H  0.61947821  0.66548445  0.13982760     0.11600
H2415       H  0.59365704  0.72518710  0.15126101     0.11300
H2416       H  0.62413713  0.73491818  0.16990335     0.07900
C2417       C  0.46345920  0.87697700  0.08207593    -0.11200
C2418       C  0.44979327  0.89308525  0.07858117     0.06000
C2419       C  0.42947886  0.89095435  0.08538775    -0.10000
C2420       C  0.42310326  0.87308902  0.09548638    -0.11600
C2421       C  0.43690104  0.85698113  0.09886102    -0.01400
C2422       C  0.45716189  0.85930005  0.09206834    -0.10500
C2423       C  0.45695486  0.91163020  0.06743380     0.06000
H2424       H  0.41856584  0.90313379  0.08302863     0.07900
H2425       H  0.40739479  0.87182444  0.10045918     0.11400
H2426       H  0.46831894  0.84731089  0.09426124     0.11600
H2427       H  0.47905960  0.87780411  0.07668339     0.07900
C2428       C  0.47682722  0.91918653  0.07057532    -0.11200
C2429       C  0.48442924  0.93531903  0.05883778    -0.10500
C2430       C  0.47230066  0.94450378  0.04376543    -0.01400
C2431       C  0.45218492  0.93742533  0.04103726    -0.11600
C2432       C  0.44461421  0.92116602  0.05271057    -0.10000
H2433       H  0.48662965  0.91250628  0.08207016     0.07900
H2434       H  0.49987733  0.94052213  0.06151795     0.11600
H2435       H  0.44239173  0.94416831  0.02956309     0.11300
H2436       H  0.42933696  0.91564035  0.04972996     0.07900
C2437       C  0.36185225  0.81996568  0.16148984    -0.11200
C2438       C  0.35255365  0.80074640  0.15877802     0.06000
C2439       C  0.36003943  0.78778828  0.14337386    -0.10000
C2440       C  0.37704105  0.79340115  0.13175788    -0.11600
C2441       C  0.38675193  0.81224315  0.13498207    -0.01400
C2442       C  0.37870802  0.82573324  0.14956913    -0.10500
C2443       C  0.33593523  0.79365215  0.17264986     0.06000
H2444       H  0.35339145  0.77284391  0.14097353     0.07900
H2445       H  0.38306873  0.78269194  0.12066408     0.11400
H2446       H  0.38611763  0.84021890  0.15251563     0.11600
H2447       H  0.35631874  0.83037404  0.17309878     0.07900
C2448       C  0.33715990  0.79712758  0.19381489    -0.11200
C2449       C  0.32218816  0.78949801  0.20703629    -0.10500
C2450       C  0.30546323  0.77842911  0.19940453    -0.01400
C2451       C  0.30406967  0.77515556  0.17823133    -0.11600
C2452       C  0.31920858  0.78254073  0.16502537    -0.10000
H2453       H  0.34998042  0.80534162  0.20023234     0.07900
H2454       H  0.32366628  0.79234142  0.22326746     0.11600
H2455       H  0.29141220  0.76662572  0.17189683     0.11300
H2456       H  0.31776833  0.77965236  0.14880338     0.07900
C2457       C  0.46587781  0.75320779  0.12933332    -0.11200
C2458       C  0.48574154  0.75691103  0.12216011     0.06000
C2459       C  0.49019071  0.77582570  0.11312921    -0.10000
C2460       C  0.47517435  0.79082656  0.11146233    -0.11600
C2461       C  0.45533941  0.78730812  0.11887772    -0.01400
C2462       C  0.45083135  0.76828452  0.12777260    -0.10500
C2463       C  0.50190734  0.74121592  0.12408800     0.06000
H2464       H  0.50530198  0.77896898  0.10720472     0.07900
H2465       H  0.47920516  0.80524998  0.10446583     0.11400
H2466       H  0.43573097  0.76507539  0.13367662     0.11600
H2467       H  0.46209622  0.73878825  0.13648171     0.07900
C2468       C  0.52153924  0.74675962  0.13061444    -0.11200
C2469       C  0.53708060  0.73223164  0.13168978    -0.10500
C2470       C  0.53338071  0.71182059  0.12614055    -0.01400
C2471       C  0.51363308  0.70621591  0.11987853    -0.11600
C2472       C  0.49802931  0.72075911  0.11895250    -0.10000
H2473       H  0.52486682  0.76237897  0.13491736     0.07900
H2474       H  0.55207150  0.73709623  0.13663596     0.11600
H2475       H  0.51024300  0.69062349  0.11554390     0.11300
H2476       H  0.48305277  0.71611947  0.11374781     0.07900
C2477       C  0.04132553  0.57513927  0.42884744    -0.11200
C2478       C  0.03988947  0.59548629  0.43556383     0.06000
C2479       C  0.03121418  0.59939200  0.45483282    -0.10000
C2480       C  0.02394125  0.58341177  0.46699648    -0.11600
C2481       C  0.02497109  0.56307710  0.46015317    -0.01400
C2482       C  0.03384553  0.55912123  0.44095049    -0.10500
C2483       C  0.04681035  0.61271738  0.42240339     0.06000
H2484       H  0.03012161  0.61487287  0.46055704     0.07900
H2485       H  0.01731087  0.58704360  0.48171884     0.11400
H2486       H  0.03498903  0.54363876  0.43524818     0.11600
H2487       H  0.04781435  0.57165762  0.41402640     0.07900
C2488       C  0.06549565  0.61193624  0.41180339    -0.11200
C2489       C  0.07203444  0.62854821  0.39990828    -0.10500
C2490       C  0.05988408  0.64617241  0.39814190    -0.01400
C2491       C  0.04104927  0.64670488  0.40850727    -0.11600
C2492       C  0.03466643  0.63027400  0.42051297    -0.10000
H2493       H  0.07522944  0.59863677  0.41304407     0.07900
H2494       H  0.08659126  0.62759237  0.39213010     0.11600
H2495       H  0.03123268  0.65996953  0.40757713     0.11300
H2496       H  0.02007689  0.63125283  0.42824082     0.07900
C2497       C  0.08605369  0.53366652  0.63022554    -0.11200
C2498       C  0.08156957  0.54891705  0.61588080     0.06000
C2499       C  0.08713687  0.56923130  0.62042454    -0.10000
C2500       C  0.09698156  0.57404637  0.63892658    -0.11600
C2501       C  0.10117735  0.55867068  0.65331616    -0.01400
C2502       C  0.09565820  0.53844351  0.64858318    -0.10500
C2503       C  0.07040806  0.54334919  0.59679485     0.06000
H2504       H  0.08396297  0.58135160  0.60965377     0.07900
H2505       H  0.10102152  0.58976749  0.64208159     0.11400
H2506       H  0.09869467  0.52610509  0.65914840     0.11600
H2507       H  0.08167256  0.51795507  0.62751615     0.07900
C2508       C  0.07449962  0.52472205  0.58680393    -0.11200
C2509       C  0.06236664  0.51808375  0.57052304    -0.10500
C2510       C  0.04599212  0.53002508  0.56359251    -0.01400
C2511       C  0.04247375  0.54909830  0.57290928    -0.11600
C2512       C  0.05449401  0.55565078  0.58936008    -0.10000
H2513       H  0.08691857  0.51505794  0.59182421     0.07900
H2514       H  0.06569791  0.50348283  0.56348480     0.11600
H2515       H  0.02997187  0.55868161  0.56793088     0.11300
H2516       H  0.05078034  0.56996394  0.59677723     0.07900
C2517       C  0.07287393  0.42311455  0.48154064    -0.11200
C2518       C  0.08294565  0.42708396  0.46292050     0.06000
C2519       C  0.07694406  0.44432644  0.45159877    -0.10000
C2520       C  0.06179895  0.45753203  0.45899923    -0.11600
C2521       C  0.05245355  0.45399893  0.47803310    -0.01400
C2522       C  0.05798333  0.43648682  0.48907878    -0.10500
C2523       C  0.10066157  0.41426156  0.45625046     0.06000
H2524       H  0.08446051  0.44808089  0.43735784     0.07900
H2525       H  0.05784808  0.47088050  0.45008603     0.11400
H2526       H  0.05079879  0.43311491  0.50359726     0.11600
H2527       H  0.07665629  0.40974322  0.49047503     0.07900
C2528       C  0.11426036  0.40653065  0.47090857    -0.11200
C2529       C  0.13186464  0.39609880  0.46502825    -0.10500
C2530       C  0.13658706  0.39306727  0.44427633    -0.01400
C2531       C  0.12268316  0.40002033  0.42949973    -0.11600
C2532       C  0.10492526  0.41057206  0.43542575    -0.10000
H2533       H  0.11181483  0.40925913  0.48703534     0.07900
H2534       H  0.14211531  0.39085154  0.47688096     0.11600
H2535       H  0.12587227  0.39795353  0.41339603     0.11300
H2536       H  0.09467791  0.41605329  0.42369200     0.07900
C2537       C  0.90175272  0.43914957  0.39629496    -0.11200
C2538       C  0.91530811  0.45584710  0.39635414     0.06000
C2539       C  0.91740625  0.46744669  0.37850257    -0.10000
C2540       C  0.90653628  0.46249383  0.36095709    -0.11600
C2541       C  0.89310475  0.44571370  0.36056678    -0.01400
C2542       C  0.89082093  0.43402971  0.37847694    -0.10500
C2543       C  0.92769528  0.46144766  0.41455912     0.06000
H2544       H  0.92744834  0.48057906  0.37812870     0.07900
H2545       H  0.90880211  0.47197240  0.34760532     0.11400
H2546       H  0.88057787  0.42106478  0.37874555     0.11600
H2547       H  0.89988843  0.42991300  0.40987891     0.07900
C2548       C  0.91890638  0.46340330  0.43406826    -0.11200
C2549       C  0.93046177  0.47095896  0.45050751    -0.10500
C2550       C  0.95102765  0.47661134  0.44771364    -0.01400
C2551       C  0.95984663  0.47398645  0.42830966    -0.11600
C2552       C  0.94837310  0.46649813  0.41201759    -0.10000
H2553       H  0.90296355  0.45974924  0.43642973     0.07900
H2554       H  0.92322705  0.47266300  0.46528867     0.11600
H2555       H  0.97567484  0.47788121  0.42559120     0.11300
H2556       H  0.95565282  0.46488982  0.39724040     0.07900
C2557       C  0.93267478  0.39139948  0.59904622    -0.11200
C2558       C  0.95043099  0.39320165  0.58705108     0.06000
C2559       C  0.96246762  0.37579957  0.58376812    -0.10000
C2560       C  0.95735559  0.35719934  0.59267756    -0.11600
C2561       C  0.94000284  0.35535224  0.60520068    -0.01400
C2562       C  0.92752328  0.37261898  0.60810609    -0.10500
C2563       C  0.95674073  0.41288978  0.57766249     0.06000
H2564       H  0.97591840  0.37654937  0.57416749     0.07900
H2565       H  0.96719081  0.34423324  0.58976129     0.11400
H2566       H  0.91403558  0.37171260  0.61763054     0.11600
H2567       H  0.92306936  0.40458079  0.60176073     0.07900
C2568       C  0.94276143  0.42505279  0.56690317    -0.11200
C2569       C  0.94954502  0.44193505  0.55560213    -0.10500
C2570       C  0.97043079  0.44703153  0.55493046    -0.01400
C2571       C  0.98415637  0.43553414  0.56671183    -0.11600
C2572       C  0.97739459  0.41869512  0.57791807    -0.10000
H2573       H  0.92676658  0.42093831  0.56641736     0.07900
H2574       H  0.93851670  0.45057140  0.54684566     0.11600
H2575       H  0.00027777  0.43914559  0.56679783     0.11300
H2576       H  0.98846117  0.40982559  0.58639920     0.07900
C2577       C  0.69186917  0.68269905  0.32083997    -0.11200
C2578       C  0.70479441  0.67414695  0.33567658     0.06000
C2579       C  0.72564038  0.67931819  0.33536667    -0.10000
C2580       C  0.73343535  0.69243236  0.32052763    -0.11600
C2581       C  0.72055488  0.70102238  0.30576762    -0.01400
C2582       C  0.69966354  0.69607112  0.30608101    -0.10500
C2583       C  0.69678422  0.66049822  0.35199398     0.06000
H2584       H  0.73597906  0.67355942  0.34688786     0.07900
H2585       H  0.74954160  0.69610028  0.32083123     0.11400
H2586       H  0.68936411  0.70238804  0.29480549     0.11600
H2587       H  0.67578855  0.67895545  0.32053561     0.07900
C2588       C  0.67775835  0.66421108  0.36135962    -0.11200
C2589       C  0.67201276  0.65341372  0.37894437    -0.10500
C2590       C  0.68533244  0.63900396  0.38746228    -0.01400
C2591       C  0.70357131  0.63428561  0.37734127    -0.11600
C2592       C  0.70909470  0.64467470  0.35963396    -0.10000
H2593       H  0.66790708  0.67630404  0.35592231     0.07900
H2594       H  0.65794348  0.65736438  0.38669136     0.11600
H2595       H  0.71398131  0.62309044  0.38364846     0.11300
H2596       H  0.72348141  0.64088910  0.35242789     0.07900
C2597       C  0.60919036  0.59231962  0.43457330    -0.11200
C2598       C  0.61040138  0.57904182  0.45140090     0.06000
C2599       C  0.62868796  0.57799358  0.46247361    -0.10000
C2600       C  0.64545268  0.58985235  0.45684491    -0.11600
C2601       C  0.64446497  0.60287914  0.43980594    -0.01400
C2602       C  0.62613756  0.60400565  0.42871163    -0.10500
C2603       C  0.59273404  0.56632768  0.45766922     0.06000
H2604       H  0.62996031  0.56809319  0.47565869     0.07900
H2605       H  0.65933298  0.58852943  0.46570086     0.11400
H2606       H  0.62488824  0.61392640  0.41554530     0.11600
H2607       H  0.59525852  0.59337457  0.42576195     0.07900
C2608       C  0.57319676  0.57491330  0.45962990    -0.11200
C2609       C  0.55691045  0.56320648  0.46702149    -0.10500
C2610       C  0.55981517  0.54263348  0.47250549    -0.01400
C2611       C  0.57926958  0.53393004  0.46993737    -0.11600
C2612       C  0.59553579  0.54565508  0.46265439    -0.10000
H2613       H  0.57065745  0.59084354  0.45600262     0.07900
H2614       H  0.54210924  0.57036058  0.46870053     0.11600
H2615       H  0.58200648  0.51807277  0.47372975     0.11300
H2616       H  0.61038679  0.53858285  0.46100189     0.07900
C2617       C  0.81297438  0.66721994  0.63583027    -0.11200
C2618       C  0.79274066  0.67431945  0.63768951     0.06000
C2619       C  0.77959864  0.67214682  0.62092484    -0.10000
C2620       C  0.78652566  0.66352076  0.60269883    -0.11600
C2621       C  0.80682546  0.65672848  0.60063163    -0.01400
C2622       C  0.81992616  0.65843967  0.61751559    -0.10500
C2623       C  0.78548587  0.68480227  0.65659580     0.06000
H2624       H  0.76403970  0.67766116  0.62165616     0.07900
H2625       H  0.77587068  0.66233754  0.59012443     0.11400
H2626       H  0.83559400  0.65329260  0.61648634     0.11600
H2627       H  0.82344260  0.66845736  0.64854934     0.07900
C2628       C  0.76544455  0.68196592  0.66388178    -0.11200
C2629       C  0.75827603  0.69290806  0.68085152    -0.10500
C2630       C  0.77102057  0.70685205  0.69101976    -0.01400
C2631       C  0.79113614  0.70941619  0.68392333    -0.11600
C2632       C  0.79824884  0.69858077  0.66693298    -0.10000
H2633       H  0.75526447  0.67128967  0.65643417     0.07900
H2634       H  0.74274289  0.69049482  0.68596062     0.11600
H2635       H  0.80133827  0.72015041  0.69126131     0.11300
H2636       H  0.81360658  0.70144716  0.66154595     0.07900
C2637       C  0.88897584  0.60405393  0.56768153    -0.11200
C2638       C  0.88924454  0.59024797  0.55118182     0.06000
C2639       C  0.87237601  0.58941351  0.53810449    -0.10000
C2640       C  0.85559521  0.60203196  0.54129926    -0.11600
C2641       C  0.85502727  0.61577421  0.55783686    -0.01400
C2642       C  0.87186076  0.61658713  0.57113081    -0.10500
C2643       C  0.90688805  0.57665482  0.54706890     0.06000
H2644       H  0.87227700  0.57909532  0.52515574     0.07900
H2645       H  0.84292460  0.60084537  0.53076693     0.11400
H2646       H  0.87189901  0.62704209  0.58395616     0.11600
H2647       H  0.90186043  0.60494093  0.57797881     0.07900
C2648       C  0.92667840  0.58457614  0.54497361    -0.11200
C2649       C  0.94271168  0.57201238  0.53833380    -0.10500
C2650       C  0.93923794  0.55127004  0.53377645    -0.01400
C2651       C  0.91955099  0.54327160  0.53668644    -0.11600
C2652       C  0.90358499  0.55581707  0.54320164    -0.10000
H2653       H  0.92955519  0.60063870  0.54767548     0.07900
H2654       H  0.95770814  0.57864718  0.53633512     0.11600
H2655       H  0.91634937  0.52734656  0.53358240     0.11300
H2656       H  0.88847489  0.54932362  0.54483963     0.07900
C2657       C  0.75874906  0.65257226  0.51535437    -0.11200
C2658       C  0.76167205  0.63987356  0.49833200     0.06000
C2659       C  0.78027976  0.62953558  0.49600819    -0.10000
C2660       C  0.79530244  0.63099440  0.51105373    -0.11600
C2661       C  0.79198489  0.64288286  0.52866464    -0.01400
C2662       C  0.77379420  0.65414167  0.53034280    -0.10500
C2663       C  0.74490814  0.63652497  0.48365702     0.06000
H2664       H  0.78283326  0.61962811  0.48299531     0.07900
H2665       H  0.80915606  0.62216274  0.50923891     0.11400
H2666       H  0.77086028  0.66364707  0.54356780     0.11600
H2667       H  0.74462146  0.66094948  0.51724856     0.07900
C2668       C  0.72532769  0.63144960  0.49074649    -0.11200
C2669       C  0.70947516  0.62783461  0.47697471    -0.10500
C2670       C  0.71285456  0.62952290  0.45585365    -0.01400
C2671       C  0.73249874  0.63460438  0.44879507    -0.11600
C2672       C  0.74841561  0.63791155  0.46257150    -0.10000
H2673       H  0.72236786  0.63003887  0.50696795     0.07900
H2674       H  0.69452405  0.62398898  0.48288081     0.11600
H2675       H  0.73561409  0.63595278  0.43260120     0.11300
H2676       H  0.76340720  0.64180438  0.45678714     0.07900
C2677       C  0.66733102  0.13078935  0.21176971    -0.11200
C2678       C  0.66563696  0.14849296  0.19990115     0.06000
C2679       C  0.65419045  0.14758507  0.18167405    -0.10000
C2680       C  0.64436575  0.12933219  0.17577117    -0.11600
C2681       C  0.64597311  0.11169787  0.18795029    -0.01400
C2682       C  0.65772882  0.11278991  0.20593614    -0.10500
C2683       C  0.67652804  0.16730822  0.20671799     0.06000
H2684       H  0.65265308  0.16101331  0.17216752     0.07900
H2685       H  0.63545509  0.12906727  0.16185650     0.11400
H2686       H  0.65969784  0.09961343  0.21571188     0.11600
H2687       H  0.67644375  0.13071794  0.22556478     0.07900
C2688       C  0.67690767  0.17250020  0.22758806    -0.11200
C2689       C  0.68973194  0.18794140  0.23481913    -0.10500
C2690       C  0.70251942  0.19873073  0.22138376    -0.01400
C2691       C  0.70127838  0.19438735  0.20032259    -0.11600
C2692       C  0.68838846  0.17885815  0.19306604    -0.10000
H2693       H  0.66766295  0.16416234  0.23847474     0.07900
H2694       H  0.68999824  0.19103754  0.25107124     0.11600
H2695       H  0.71074230  0.20254771  0.18950028     0.11300
H2696       H  0.68848419  0.17521257  0.17692734     0.07900
C2697       C  0.72951243  0.31190144  0.15642540    -0.11200
C2698       C  0.71659564  0.32841651  0.16113401     0.06000
C2699       C  0.70970799  0.33084579  0.18128264    -0.10000
C2700       C  0.71605490  0.31732982  0.19653172    -0.11600
C2701       C  0.72916087  0.30093921  0.19186401    -0.01400
C2702       C  0.73562769  0.29822310  0.17160444    -0.10500
C2703       C  0.71081097  0.34321540  0.14502794     0.06000
H2704       H  0.69981182  0.34346744  0.18532135     0.07900
H2705       H  0.71068936  0.31971096  0.21200619     0.11400
H2706       H  0.74569459  0.28574093  0.16755394     0.11600
H2707       H  0.73484230  0.30953812  0.14093455     0.07900
C2708       C  0.72571349  0.35040751  0.13146835    -0.11200
C2709       C  0.72034410  0.36291164  0.11515639    -0.10500
C2710       C  0.69986989  0.36848412  0.11185328    -0.01400
C2711       C  0.68503926  0.36221980  0.12606274    -0.11600
C2712       C  0.69049205  0.34970924  0.14257387    -0.10000
H2713       H  0.74155409  0.34606603  0.13330227     0.07900
H2714       H  0.73227536  0.36770883  0.10475935     0.11600
H2715       H  0.66916347  0.36628021  0.12398454     0.11300
H2716       H  0.67871718  0.34441559  0.15290701     0.07900
C2717       C  0.67092388  0.30494296  0.30795948    -0.11200
C2718       C  0.66281855  0.29229969  0.32326204     0.06000
C2719       C  0.67169454  0.27298894  0.32647149    -0.10000
C2720       C  0.68764773  0.26608660  0.31408169    -0.11600
C2721       C  0.69526192  0.27841140  0.29829728    -0.01400
C2722       C  0.68699875  0.29808786  0.29563330    -0.10500
C2723       C  0.64405285  0.29827974  0.33459376     0.06000
H2724       H  0.66603379  0.26302669  0.33839281     0.07900
H2725       H  0.69387430  0.25100525  0.31674200     0.11400
H2726       H  0.69256748  0.30800688  0.28362995     0.11600
H2727       H  0.66430940  0.31979363  0.30497016     0.07900
C2728       C  0.64081004  0.31835814  0.34167389    -0.11200
C2729       C  0.62252139  0.32362841  0.35165359    -0.10500
C2730       C  0.60713622  0.30893372  0.35451915    -0.01400
C2731       C  0.61063574  0.28889925  0.34751278    -0.11600
C2732       C  0.62872676  0.28369469  0.33770197    -0.10000
H2733       H  0.65240305  0.32993464  0.33951693     0.07900
H2734       H  0.62030072  0.33918910  0.35679062     0.11600
H2735       H  0.59924519  0.27707048  0.34935887     0.11300
H2736       H  0.63048467  0.26823837  0.33207545     0.07900
C2737       C  0.79551998  0.35008949  0.28886718    -0.11200
C2738       C  0.81471768  0.34803389  0.29819560     0.06000
C2739       C  0.82353508  0.32847793  0.29933061    -0.10000
C2740       C  0.81364397  0.31151068  0.29067858    -0.11600
C2741       C  0.79469156  0.31377339  0.28083546    -0.01400
C2742       C  0.78569154  0.33325784  0.28029306    -0.10500
C2743       C  0.82596508  0.36659639  0.30504833     0.06000
H2744       H  0.83836445  0.32641558  0.30630160     0.07900
H2745       H  0.82088368  0.29667911  0.29157078     0.11400
H2746       H  0.77102848  0.33561166  0.27305621     0.11600
H2747       H  0.78812015  0.36485077  0.28801405     0.07900
C2748       C  0.82556559  0.38409043  0.29273334    -0.11200
C2749       C  0.83624431  0.40156213  0.29829378    -0.10500
C2750       C  0.84791112  0.40221274  0.31634120    -0.01400
C2751       C  0.84815344  0.38484467  0.32898049    -0.11600
C2752       C  0.83732842  0.36713053  0.32332309    -0.10000
H2753       H  0.81731804  0.38416648  0.27840554     0.07900
H2754       H  0.83551667  0.41454235  0.28808802     0.11600
H2755       H  0.85696546  0.38481003  0.34295964     0.11300
H2756       H  0.83780839  0.35389530  0.33320704     0.07900
C2757       C  0.69720436  0.18602015  0.67035375    -0.11200
C2758       C  0.71077163  0.17165714  0.66190401     0.06000
C2759       C  0.73071654  0.17058809  0.66983976    -0.10000
C2760       C  0.73728324  0.18422208  0.68487802    -0.11600
C2761       C  0.72399919  0.19910426  0.69273769    -0.01400
C2762       C  0.70372419  0.19953567  0.68564901    -0.10500
C2763       C  0.70495217  0.15907952  0.64375962     0.06000
H2764       H  0.74146034  0.15936130  0.66419619     0.07900
H2765       H  0.75287902  0.18318892  0.69022297     0.11400
H2766       H  0.69302926  0.21071168  0.69150010     0.11600
H2767       H  0.68179554  0.18741075  0.66459013     0.07900
C2768       C  0.68499109  0.15151544  0.64088597    -0.11200
C2769       C  0.67981994  0.14070159  0.62301480    -0.10500
C2770       C  0.69451857  0.13730511  0.60770317    -0.01400
C2771       C  0.71447934  0.14452476  0.61094171    -0.11600
C2772       C  0.71954310  0.15530454  0.62851559    -0.10000
H2773       H  0.67337798  0.15398787  0.65239518     0.07900
H2774       H  0.66432678  0.13532025  0.62105710     0.11600
H2775       H  0.72634740  0.14225768  0.59964664     0.11300
H2776       H  0.73490006  0.16123771  0.62978262     0.07900
C2777       C  0.61144779  0.09392818  0.56461477    -0.11200
C2778       C  0.61078692  0.08217689  0.54658416     0.06000
C2779       C  0.62883791  0.07910434  0.53555217    -0.10000
C2780       C  0.64705077  0.08779417  0.54201542    -0.11600
C2781       C  0.64787758  0.09995308  0.55974344    -0.01400
C2782       C  0.62988017  0.10282956  0.57112766    -0.10500
C2783       C  0.59176091  0.07237237  0.53918815     0.06000
H2784       H  0.62894199  0.06969546  0.52193196     0.07900
H2785       H  0.66057009  0.08490159  0.53294207     0.11400
H2786       H  0.62999136  0.11213097  0.58480901     0.11600
H2787       H  0.59769546  0.09645290  0.57344513     0.07900
C2788       C  0.57947796  0.06089669  0.55246208    -0.11200
C2789       C  0.56346971  0.04902292  0.54475890    -0.10500
C2790       C  0.55937268  0.04848338  0.52363279    -0.01400
C2791       C  0.57104406  0.06080212  0.51053524    -0.11600
C2792       C  0.58703744  0.07260474  0.51822878    -0.10000
H2793       H  0.58286165  0.06033441  0.56864238     0.07900
H2794       H  0.55466038  0.03983516  0.55531066     0.11600
H2795       H  0.56816604  0.06095206  0.49424875     0.11300
H2796       H  0.59612265  0.08153468  0.50768114     0.07900
C2797       C  0.88586987  0.09447926  0.46041086    -0.11200
C2798       C  0.89497848  0.08133288  0.44616102     0.06000
C2799       C  0.88681724  0.08013561  0.42632695    -0.10000
C2800       C  0.86959397  0.09172791  0.42097644    -0.11600
C2801       C  0.85999358  0.10420329  0.43557921    -0.01400
C2802       C  0.86844694  0.10559578  0.45525872    -0.10500
C2803       C  0.91220482  0.06817200  0.45262979     0.06000
H2804       H  0.89362865  0.07005813  0.41510598     0.07900
H2805       H  0.86324420  0.09022580  0.40578280     0.11400
H2806       H  0.86132815  0.11506147  0.46682564     0.11600
H2807       H  0.89179911  0.09553829  0.47581735     0.07900
C2808       C  0.92970172  0.07680965  0.46147117    -0.11200
C2809       C  0.94516371  0.06433290  0.46933785    -0.10500
C2810       C  0.94322344  0.04293899  0.46896464    -0.01400
C2811       C  0.92577067  0.03433309  0.45987856    -0.11600
C2812       C  0.91050793  0.04683068  0.45162795    -0.10000
H2813       H  0.93128603  0.09324364  0.46245495     0.07900
H2814       H  0.95842465  0.07145356  0.47615281     0.11600
H2815       H  0.92388201  0.01792161  0.45919399     0.11300
H2816       H  0.89704043  0.03984654  0.44507176     0.07900
C2817       C  0.82079771  0.15843111  0.35835796    -0.11200
C2818       C  0.80021308  0.16346488  0.35463788     0.06000
C2819       C  0.78538528  0.15674618  0.36861193    -0.10000
C2820       C  0.79090120  0.14572199  0.38595464    -0.11600
C2821       C  0.81145382  0.14109166  0.39000688    -0.01400
C2822       C  0.82635595  0.14728709  0.37583838    -0.10500
C2823       C  0.79399415  0.17636101  0.33688447     0.06000
H2824       H  0.76945645  0.16058781  0.36656001     0.07900
H2825       H  0.77895840  0.14116356  0.39644809     0.11400
H2826       H  0.84232206  0.14402022  0.37853145     0.11600
H2827       H  0.83261635  0.16318139  0.34782133     0.07900
C2828       C  0.80602232  0.19296787  0.33049378    -0.11200
C2829       C  0.79909461  0.20620919  0.31518048    -0.10500
C2830       C  0.77989737  0.20327075  0.30601711    -0.01400
C2831       C  0.76817663  0.18633741  0.31194788    -0.11600
C2832       C  0.77519060  0.17299111  0.32705274    -0.10000
H2833       H  0.82046817  0.19618829  0.33781696     0.07900
H2834       H  0.80854844  0.21908115  0.31091492     0.11600
H2835       H  0.75349342  0.18341859  0.30496368     0.11300
H2836       H  0.76572447  0.16009245  0.33117745     0.07900
C2837       C  0.78267027  0.11644583  0.49551089    -0.11200
C2838       C  0.76242184  0.12210152  0.49147537     0.06000
C2839       C  0.75713638  0.12858355  0.47174050    -0.10000
C2840       C  0.77181056  0.12923797  0.45626050    -0.11600
C2841       C  0.79203494  0.12322562  0.46016912    -0.01400
C2842       C  0.79731094  0.11691260  0.48000220    -0.10500
C2843       C  0.74679459  0.12097617  0.50775192     0.06000
H2844       H  0.74165300  0.13323642  0.46832447     0.07900
H2845       H  0.76722819  0.13422113  0.44117909     0.11400
H2846       H  0.81274734  0.11223119  0.48355872     0.11600
H2847       H  0.78707884  0.11126335  0.51058144     0.07900
C2848       C  0.72775630  0.11199781  0.50383031    -0.11200
C2849       C  0.71298040  0.11090098  0.51916703    -0.10500
C2850       C  0.71689280  0.11891814  0.53871288    -0.01400
C2851       C  0.73602608  0.12779690  0.54263453    -0.11600
C2852       C  0.75084537  0.12875591  0.52731772    -0.10000
H2853       H  0.72438070  0.10565095  0.48892807     0.07900
H2854       H  0.69844637  0.10388830  0.51563235     0.11600
H2855       H  0.73954416  0.13413606  0.55750161     0.11300
H2856       H  0.76537966  0.13586794  0.53066250     0.07900
C2857       C  0.82679308  0.20709192  0.17692250    -0.11200
C2858       C  0.84603542  0.20501679  0.18619052     0.06000
C2859       C  0.84832582  0.21148866  0.20656874    -0.10000
C2860       C  0.83212897  0.22052454  0.21711096    -0.11600
C2861       C  0.81305601  0.22316689  0.20769471    -0.01400
C2862       C  0.81047324  0.21603516  0.18756398    -0.10500
C2863       C  0.86411470  0.19777174  0.17433135     0.06000
H2864       H  0.86276837  0.20973744  0.21437701     0.07900
H2865       H  0.83461776  0.22548767  0.23269870     0.11400
H2866       H  0.79593363  0.21765926  0.17990763     0.11600
H2867       H  0.82451327  0.20244963  0.16121044     0.07900
C2868       C  0.86268360  0.18209587  0.15960088    -0.11200
C2869       C  0.87974772  0.17655507  0.14774541    -0.10500
C2870       C  0.89846041  0.18672433  0.15031480    -0.01400
C2871       C  0.89989667  0.20190532  0.16546639    -0.11600
C2872       C  0.88303816  0.20736340  0.17720094    -0.10000
H2873       H  0.84836398  0.17424752  0.15714701     0.07900
H2874       H  0.87813806  0.16480054  0.13621417     0.11600
H2875       H  0.91405768  0.21001140  0.16805124     0.11300
H2876       H  0.88473743  0.21970183  0.18808717     0.07900
C2877       C  0.05612847  0.42408837  0.06219065    -0.11200
C2878       C  0.04264465  0.41250130  0.07420472     0.06000
C2879       C  0.02194633  0.41826372  0.07484068    -0.10000
C2880       C  0.01468314  0.43436885  0.06287938    -0.11600
C2881       C  0.02795387  0.44531758  0.05008900    -0.01400
C2882       C  0.04886923  0.44033442  0.05029116    -0.10500
C2883       C  0.04954252  0.39348691  0.08468647     0.06000
H2884       H  0.01120586  0.41000420  0.08431414     0.07900
H2885       H  0.99856029  0.43795783  0.06334933     0.11400
H2886       H  0.05955295  0.44852484  0.04069305     0.11600
H2887       H  0.07211883  0.42004032  0.06126272     0.07900
C2888       C  0.03684942  0.37625796  0.08444661    -0.11200
C2889       C  0.04275325  0.35821935  0.09395767    -0.10500
C2890       C  0.06167488  0.35661627  0.10400636    -0.01400
C2891       C  0.07465803  0.37372819  0.10408340    -0.11600
C2892       C  0.06865122  0.39200482  0.09447269    -0.10000
H2893       H  0.02233184  0.37656393  0.07657411     0.07900
H2894       H  0.03233209  0.34541680  0.09323892     0.11600
H2895       H  0.08934984  0.37302566  0.11159178     0.11300
H2896       H  0.07881865  0.40502095  0.09491074     0.07900
C2897       C  0.15963497  0.27126685  0.18746384    -0.11200
C2898       C  0.16011189  0.29112567  0.17919344     0.06000
C2899       C  0.17639744  0.30404153  0.18460842    -0.10000
C2900       C  0.19175333  0.29726016  0.19786639    -0.11600
C2901       C  0.19134204  0.27731972  0.20579702    -0.01400
C2902       C  0.17513161  0.26440394  0.20040619    -0.10500
C2903       C  0.14359241  0.29815345  0.16510888     0.06000
H2904       H  0.17746724  0.31930742  0.17838380     0.07900
H2905       H  0.20414458  0.30751959  0.20164671     0.11400
H2906       H  0.17425300  0.24903892  0.20645539     0.11600
H2907       H  0.14711704  0.26101173  0.18416615     0.07900
C2908       C  0.13422265  0.28421555  0.15173735    -0.11200
C2909       C  0.11749414  0.29002740  0.13994339    -0.10500
C2910       C  0.10983581  0.31004265  0.14083218    -0.01400
C2911       C  0.11982503  0.32441483  0.15319511    -0.11600
C2912       C  0.13647685  0.31849518  0.16533400    -0.10000
H2913       H  0.13960307  0.26863143  0.15056788     0.07900
H2914       H  0.11021729  0.27865932  0.13037842     0.11600
H2915       H  0.11409663  0.33988688  0.15431515     0.11300
H2916       H  0.14318601  0.32964963  0.17551181     0.07900
C2917       C  0.00564717  0.27748293  0.12102200    -0.11200
C2918       C  0.01095406  0.25678881  0.12256392     0.06000
C2919       C  0.03165126  0.25133334  0.12369174    -0.10000
C2920       C  0.04677654  0.26637815  0.12355734    -0.11600
C2921       C  0.04144590  0.28709017  0.12193499    -0.01400
C2922       C  0.02074347  0.29247632  0.12055919    -0.10500
C2923       C  0.99486021  0.24099498  0.12301049     0.06000
H2924       H  0.03608929  0.23545754  0.12499528     0.07900
H2925       H  0.06262455  0.26180707  0.12456507     0.11400
H2926       H  0.01617687  0.30832593  0.11938476     0.11600
H2927       H  0.98979860  0.28204023  0.11994848     0.07900
C2928       C  0.97768985  0.24342509  0.13562229    -0.11200
C2929       C  0.96234368  0.22865211  0.13591083    -0.10500
C2930       C  0.96382660  0.21118371  0.12350807    -0.01400
C2931       C  0.98102881  0.20882219  0.11084082    -0.11600
C2932       C  0.99642381  0.22355145  0.11065858    -0.10000
H2933       H  0.97625209  0.25668005  0.14542481     0.07900
H2934       H  0.94935946  0.23091721  0.14590249     0.11600
H2935       H  0.98264189  0.19558672  0.10104665     0.11300
H2936       H  0.00942767  0.22146362  0.10064578     0.07900
C2937       C  0.12444479  0.08638940  0.96742302    -0.11200
C2938       C  0.10951178  0.08228000  0.95273413     0.06000
C2939       C  0.11159377  0.09064567  0.93305418    -0.10000
C2940       C  0.12879983  0.10243430  0.92802686    -0.11600
C2941       C  0.14398219  0.10622156  0.94272667    -0.01400
C2942       C  0.14135315  0.09825570  0.96255240    -0.10500
C2943       C  0.09214602  0.06893226  0.95823849     0.06000
H2944       H  0.10019146  0.08762446  0.92148299     0.07900
H2945       H  0.13033539  0.10832096  0.91265149     0.11400
H2946       H  0.15255071  0.10087549  0.97441219     0.11600
H2947       H  0.12302887  0.08035028  0.98276638     0.07900
C2948       C  0.09582414  0.05001280  0.96762289    -0.11200
C2949       C  0.07963517  0.03786235  0.97426844    -0.10500
C2950       C  0.05938376  0.04448521  0.97191650    -0.01400
C2951       C  0.05569753  0.06337485  0.96233945    -0.11600
C2952       C  0.07195025  0.07542446  0.95542157    -0.10000
H2953       H  0.11130156  0.04468243  0.96990369     0.07900
H2954       H  0.08301578  0.02339766  0.98152283     0.11600
H2955       H  0.04025925  0.06885686  0.96021125     0.11300
H2956       H  0.06879011  0.09004999  0.94839026     0.07900
C2957       C  0.07621509  0.95379250  0.06842669    -0.11200
C2958       C  0.06899575  0.95519962  0.08859297     0.06000
C2959       C  0.04941947  0.96324209  0.09206539    -0.10000
C2960       C  0.03761703  0.97048721  0.07592586    -0.11600
C2961       C  0.04505144  0.96991736  0.05580144    -0.01400
C2962       C  0.06436354  0.96115912  0.05215513    -0.10500
C2963       C  0.08214579  0.95011262  0.10634137     0.06000
H2964       H  0.04335201  0.96426245  0.10743393     0.07900
H2965       H  0.02275978  0.97688887  0.07932257     0.11400
H2966       H  0.07045521  0.96031374  0.03679430     0.11600
H2967       H  0.09128256  0.94773126  0.06535112     0.07900
C2968       C  0.09310219  0.93165442  0.10771870    -0.11200
C2969       C  0.10423148  0.92691597  0.12551472    -0.10500
C2970       C  0.10469913  0.94070206  0.14202519    -0.01400
C2971       C  0.09424942  0.95940628  0.14005647    -0.11600
C2972       C  0.08320134  0.96399361  0.12257100    -0.10000
H2973       H  0.09258316  0.92071723  0.09531748     0.07900
H2974       H  0.11221639  0.91247575  0.12643801     0.11600
H2975       H  0.09430071  0.97064967  0.15218796     0.11300
H2976       H  0.07531112  0.97851183  0.12178648     0.07900
C2977       C  0.95919713  0.12841815  0.07390665    -0.11200
C2978       C  0.94930810  0.10974415  0.07731656     0.06000
C2979       C  0.93382272  0.10886634  0.09226768    -0.10000
C2980       C  0.92847889  0.12639302  0.10355390    -0.11600
C2981       C  0.93868168  0.14497871  0.10016240    -0.01400
C2982       C  0.95390615  0.14571710  0.08500769    -0.10500
C2983       C  0.95562402  0.09154299  0.06518770     0.06000
H2984       H  0.92584015  0.09469351  0.09516896     0.07900
H2985       H  0.91676000  0.12529378  0.11517457     0.11400
H2986       H  0.96212421  0.15970309  0.08183632     0.11600
H2987       H  0.97145519  0.12963498  0.06286638     0.07900
C2988       C  0.96084625  0.09384884  0.04447482    -0.11200
C2989       C  0.96882804  0.07757107  0.03330760    -0.10500
C2990       C  0.97164226  0.05837813  0.04242097    -0.01400
C2991       C  0.96580836  0.05576919  0.06297511    -0.11600
C2992       C  0.95787944  0.07221089  0.07425788    -0.10000
H2993       H  0.95890145  0.10838620  0.03685846     0.07900
H2994       H  0.97286533  0.08011195  0.01746381     0.11600
H2995       H  0.96763353  0.04112396  0.07041340     0.11300
H2996       H  0.95412589  0.06995867  0.09021232     0.07900
C2997       C  0.92276909  0.92062750  0.02345184    -0.11200
C2998       C  0.91341035  0.92502933  0.04234157     0.06000
C2999       C  0.91994330  0.94230049  0.05328349    -0.10000
C3000       C  0.93497807  0.95514889  0.04523806    -0.11600
C3001       C  0.94362347  0.95118111  0.02595698    -0.01400
C3002       C  0.93751593  0.93367211  0.01525141    -0.10500
C3003       C  0.89573569  0.91270232  0.04960067     0.06000
H3004       H  0.91293395  0.94634008  0.06771241     0.07900
H3005       H  0.93943630  0.96852908  0.05388230     0.11400
H3006       H  0.94419879  0.93000790  0.00056013     0.11600
H3007       H  0.91851950  0.90718093  0.01482327     0.07900
C3008       C  0.88159559  0.90529888  0.03532489    -0.11200
C3009       C  0.86410526  0.89513421  0.04168203    -0.10500
C3010       C  0.86002476  0.89215525  0.06254164    -0.01400
C3011       C  0.87436651  0.89892123  0.07697262    -0.11600
C3012       C  0.89207280  0.90917664  0.07054875    -0.10000
H3013       H  0.88357724  0.90801850  0.01913931     0.07900
H3014       H  0.85348909  0.88998558  0.03010427     0.11600
H3015       H  0.87161553  0.89684649  0.09315250     0.11300
H3016       H  0.90276650  0.91450215  0.08196121     0.07900
C3017       C  0.94396556  0.05426110  0.91565369    -0.11200
C3018       C  0.92910215  0.04189499  0.90640338     0.06000
C3019       C  0.92569047  0.02220979  0.91435290    -0.10000
C3020       C  0.93734985  0.01478225  0.93061743    -0.11600
C3021       C  0.95263525  0.02690231  0.93947956    -0.01400
C3022       C  0.95558625  0.04686018  0.93200829    -0.10500
C3023       C  0.91823437  0.04873449  0.88762209     0.06000
H3024       H  0.91411104  0.01240776  0.90780581     0.07900
H3025       H  0.93450945  0.99945128  0.93611445     0.11400
H3026       H  0.96724305  0.05662563  0.93847222     0.11600
H3027       H  0.94712674  0.06938800  0.90978196     0.07900
C3028       C  0.91111006  0.06891281  0.88522687    -0.11200
C3029       C  0.90121540  0.07494784  0.86713128    -0.10500
C3030       C  0.89842479  0.06093816  0.85107184    -0.01400
C3031       C  0.90566316  0.04084344  0.85363594    -0.11600
C3032       C  0.91539479  0.03488055  0.87154699    -0.10000
H3033       H  0.91304151  0.07994898  0.89739209     0.07900
H3034       H  0.89588310  0.09052785  0.86568332     0.11600
H3035       H  0.90396881  0.02952584  0.84169610     0.11300
H3036       H  0.92106885  0.01938712  0.87262957     0.07900
C3037       C  0.05068471  0.91806511  0.93679022    -0.11200
C3038       C  0.03795914  0.91098647  0.92101825     0.06000
C3039       C  0.01893307  0.92054881  0.91814950    -0.10000
C3040       C  0.01240195  0.93609694  0.93126159    -0.11600
C3041       C  0.02485501  0.94271345  0.94739494    -0.01400
C3042       C  0.04424448  0.93381351  0.94976434    -0.10500
C3043       C  0.04374245  0.89277016  0.90860514     0.06000
H3044       H  0.00892516  0.91583711  0.90587629     0.07900
H3045       H  0.99752911  0.94287134  0.92881948     0.11400
H3046       H  0.05421515  0.93859084  0.96205181     0.11600
H3047       H  0.06531313  0.91093586  0.93961506     0.07900
C3048       C  0.06409924  0.88906451  0.90271062    -0.11200
C3049       C  0.06937558  0.87111720  0.89219349    -0.10500
C3050       C  0.05440452  0.85649625  0.88742001    -0.01400
C3051       C  0.03403121  0.86054202  0.89288639    -0.11600
C3052       C  0.02880780  0.87832868  0.90335401    -0.10000
H3053       H  0.07596630  0.89997321  0.90632658     0.07900
H3054       H  0.08520263  0.86850197  0.88822112     0.11600
H3055       H  0.02201888  0.84971534  0.88949308     0.11300
H3056       H  0.01306631  0.88039533  0.90793494     0.07900
loop_ 
_geom_bond_atom_site_label_1 
_geom_bond_atom_site_label_2 
_geom_bond_distance 
_geom_bond_site_symmetry_2 
_ccdc_geom_bond_type 
Zn1           O5   1.961   1_554  S
Zn1           O6   2.000       .  S
Zn1          O10   2.028   1_565  S
Zn1          O17   2.016   1_655  S
Zn2           O5   1.966       .  S
Zn2           O7   2.043       .  S
Zn2           O9   2.040       .  S
Zn2          O13   2.032       .  S
Zn3           O5   1.956   1_545  S
Zn3           O8   2.016   1_556  S
Zn3          O11   2.011       .  S
Zn3          O14   2.019   1_655  S
Zn4           O5   1.965   1_455  S
Zn4          O12   2.019   1_565  S
Zn4          O15   2.014       .  S
Zn4          O16   2.029   1_556  S
O6           C18   1.272       .  A
O7           C19   1.277   1_565  A
O8           C20   1.275       .  A
O9           C18   1.277   1_556  A
O10          C20   1.274       .  A
O11          C19   1.273       .  A
O12          C21   1.275       .  A
O13          C22   1.276   1_655  A
O14          C21   1.274       .  A
O15          C22   1.273       .  A
O16          C23   1.274       .  A
O17          C23   1.275       .  A
C18        C3001   1.480       .  S
C19        C3021   1.487       .  S
C20        C2990   1.485       .  S
C21        C2950   1.482       .  S
C22        C3041   1.483       .  S
C23        C2961   1.486       .  S
C24        C2910   1.481       .  S
C24          N25   1.359       .  A
C24          N29   1.369       .  A
N25          C26   1.352       .  A
C26        C2921   1.476       .  S
C26          N27   1.351       .  A
N27          C28   1.357       .  A
C28        C2890   1.491       .  S
C28          N29   1.368       .  A
C30        C2981   1.487       .  S
C30          N31   1.357       .  A
C30          N35   1.368       .  A
N31          C32   1.350       .  A
C32        C2930   1.480       .  S
C32          N33   1.351       .  A
N33          C34   1.359       .  A
C34        C2870   1.487       .  S
C34          N35   1.369       .  A
C36        C2821   1.487       .  S
C36          N37   1.359       .  A
C36          N41   1.366       .  A
N37          C38   1.354       .  A
C38        C2841   1.481       .  S
C38          N39   1.354       .  A
N39          C40   1.358       .  A
C40        C2801   1.480       .  S
C40          N41   1.366       .  A
C42        C2770   1.490       .  S
C42          N43   1.369       .  A
C42          N47   1.359       .  A
N43          C44   1.369       .  A
C44        C2781   1.487       .  S
C44          N45   1.358       .  A
N45          C46   1.350       .  A
C46        C2850   1.480       .  S
C46          N47   1.350       .  A
Zn48         O52   1.968       .  S
Zn48         O53   2.025       .  S
Zn48         O57   2.020       .  S
Zn48         O64   2.051       .  S
Zn49         O52   1.972       .  S
Zn49         O54   2.036       .  S
Zn49         O56   2.036       .  S
Zn49         O60   2.036       .  S
Zn50         O52   1.960       .  S
Zn50         O55   2.035       .  S
Zn50         O58   2.034       .  S
Zn50         O61   2.039       .  S
Zn51         O52   1.949       .  S
Zn51         O59   1.997       .  S
Zn51         O62   1.999       .  S
Zn51         O63   2.003       .  S
O53          C65   1.277       .  A
O54          C66   1.276       .  A
O55          C67   1.277       .  A
O56          C65   1.277       .  A
O57          C67   1.274       .  A
O58          C66   1.277       .  A
O59          C68   1.271       .  A
O60          C69   1.276       .  A
O61          C68   1.277       .  A
O62          C69   1.272       .  A
O63          C70   1.273       .  A
O64          C70   1.277       .  A
C65        C2861   1.488       .  S
C66        C2690   1.491       .  S
C67        C2830   1.486       .  S
C68        C2721   1.483       .  S
C69        C2701   1.479       .  S
C70        C2741   1.488       .  S
C71        C2621   1.488       .  S
C71          N72   1.358       .  A
C71          N76   1.368       .  A
N72          C73   1.353       .  A
C73        C2661   1.480       .  S
C73          N74   1.352       .  A
N74          C75   1.358       .  A
C75        C2641   1.486       .  S
C75          N76   1.367       .  A
C77        C2590   1.468       .  S
C77          N78   1.355       .  A
C77          N82   1.360       .  A
N78          C79   1.353       .  A
C79        C2670   1.479       .  S
C79          N80   1.357       .  A
N80          C81   1.361       .  A
C81        C2601   1.483       .  S
C81          N82   1.364       .  A
Zn83         O87   1.968   1_455  S
Zn83         O88   2.043       .  S
Zn83         O92   2.035   1_455  S
Zn83         O99   2.044       .  S
Zn84         O87   1.964   1_455  S
Zn84         O89   2.019   1_455  S
Zn84         O91   2.021       .  S
Zn84         O95   2.035       .  S
Zn85         O87   1.974       .  S
Zn85         O90   2.022       .  S
Zn85         O93   2.040       .  S
Zn85         O96   2.024       .  S
Zn86         O87   1.967   1_455  S
Zn86         O94   2.027   1_455  S
Zn86         O97   2.028       .  S
Zn86         O98   2.019       .  S
O88         C100   1.277       .  A
O89         C101   1.276       .  A
O90         C102   1.274       .  A
O91         C100   1.274       .  A
O92         C102   1.277       .  A
O93         C101   1.276       .  A
O94         C103   1.275       .  A
O95         C104   1.276       .  A
O96         C103   1.276       .  A
O97         C104   1.275       .  A
O98         C105   1.274       .  A
O99         C105   1.278       .  A
C100       C2521   1.487       .  S
C101       C2550   1.489       .  S
C102       C2570   1.488       .  S
C103       C2650   1.486       .  S
C104       C2481   1.489       .  S
C105       C2510   1.487       .  S
C106       C2441   1.478       .  S
C106        N107   1.367       .  A
C106        N111   1.359       .  A
N107        C108   1.367       .  A
C108       C2421   1.491       .  S
C108        N109   1.358       .  A
N109        C110   1.353       .  A
C110       C2461   1.482       .  S
C110        N111   1.354       .  A
C112       C2410   1.489       .  S
C112        N113   1.365       .  A
C112        N117   1.359       .  A
N113        C114   1.365       .  A
C114       C2381   1.477       .  S
C114        N115   1.358       .  A
N115        C116   1.355       .  A
C116       C2470   1.482       .  S
C116        N117   1.355       .  A
C118       C2341   1.480       .  S
C118        N119   1.360       .  A
C118        N123   1.365       .  A
N119        C120   1.354       .  A
C120       C2370   1.481       .  S
C120        N121   1.352       .  A
N121        C122   1.357       .  A
C122       C2321   1.484       .  S
C122        N123   1.364       .  A
C124       C2301   1.489       .  S
C124        N125   1.362       .  A
C124        N129   1.371       .  A
N125        C126   1.353       .  A
C126       C2361   1.481       .  S
C126        N127   1.349       .  A
N127        C128   1.355       .  A
C128       C2970   1.491       .  S
C128        N129   1.368       .  A
Zn130       O134   1.968       .  S
Zn130       O135   2.030       .  S
Zn130       O139   2.034       .  S
Zn130       O146   2.044       .  S
Zn131       O134   1.969       .  S
Zn131       O136   2.036       .  S
Zn131       O138   2.015       .  S
Zn131       O142   2.023       .  S
Zn132       O134   1.964       .  S
Zn132       O137   2.017       .  S
Zn132       O140   2.014       .  S
Zn132       O143   2.028       .  S
Zn133       O134   1.967       .  S
Zn133       O141   2.025       .  S
Zn133       O144   2.041       .  S
Zn133       O145   2.030       .  S
O135        C147   1.276       .  A
O136        C148   1.275       .  A
O137        C149   1.273       .  A
O138        C147   1.274       .  A
O139        C149   1.276       .  A
O140        C148   1.274       .  A
O141        C150   1.275       .  A
O142        C151   1.275       .  A
O143        C150   1.275       .  A
O144        C151   1.277       .  A
O145        C152   1.275       .  A
O146        C152   1.278       .  A
C147       C2281   1.482       .  S
C148       C2261   1.485       .  S
C149       C2241   1.486       .  S
C150       C2221   1.481       .  S
C151       C2450   1.485       .  S
C152       C2310   1.491       .  S
Zn153       O157   1.972       .  S
Zn153       O158   2.021       .  S
Zn153       O162   2.022       .  S
Zn153       O169   2.029       .  S
Zn154       O157   1.963       .  S
Zn154       O159   2.023       .  S
Zn154       O161   2.021       .  S
Zn154       O165   2.032       .  S
Zn155       O157   1.964       .  S
Zn155       O160   2.046       .  S
Zn155       O163   2.030       .  S
Zn155       O166   2.020       .  S
Zn156       O157   1.971       .  S
Zn156       O164   2.040       .  S
Zn156       O167   2.028       .  S
Zn156       O168   2.011       .  S
O158        C170   1.273       .  A
O159        C171   1.275       .  A
O160        C172   1.277       .  A
O161        C170   1.275       .  A
O162        C172   1.274       .  A
O163        C171   1.275       .  A
O164        C173   1.276       .  A
O165        C174   1.275       .  A
O166        C173   1.276       .  A
O167        C174   1.274       .  A
O168        C175   1.274       .  A
O169        C175   1.276       .  A
C170       C2350   1.480       .  S
C171       C2901   1.483       .  S
C172       C2201   1.486       .  S
C173       C2170   1.489       .  S
C174       C2141   1.487       .  S
C175       C2181   1.479       .  S
C176       C2101   1.489       .  S
C176        N177   1.360       .  A
C176        N181   1.370       .  A
N177        C178   1.351       .  A
C178       C2121   1.477       .  S
C178        N179   1.348       .  A
N179        C180   1.355       .  A
C180       C2081   1.487       .  S
C180        N181   1.368       .  A
C182       C2061   1.487       .  S
C182        N183   1.360       .  A
C182        N187   1.369       .  A
N183        C184   1.353       .  A
C184       C2130   1.478       .  S
C184        N185   1.350       .  A
N185        C186   1.356       .  A
C186       C2041   1.488       .  S
C186        N187   1.368       .  A
Zn188       O192   1.965       .  S
Zn188       O193   2.030       .  S
Zn188       O197   2.020   1_545  S
Zn188       O204   2.033       .  S
Zn189       O192   1.956       .  S
Zn189       O194   2.020   1_545  S
Zn189       O196   2.002       .  S
Zn189       O200   2.016       .  S
Zn190       O192   1.961   1_565  S
Zn190       O195   2.008       .  S
Zn190       O198   2.036       .  S
Zn190       O201   2.020       .  S
Zn191       O192   1.957       .  S
Zn191       O199   2.024   1_545  S
Zn191       O202   2.012       .  S
Zn191       O203   2.005       .  S
O193        C205   1.275       .  A
O194        C206   1.275       .  A
O195        C207   1.273       .  A
O196        C205   1.272       .  A
O197        C207   1.275       .  A
O198        C206   1.276       .  A
O199        C208   1.275       .  A
O200        C209   1.273       .  A
O201        C208   1.275       .  A
O202        C209   1.274       .  A
O203        C210   1.272       .  A
O204        C210   1.276       .  A
C205       C2021   1.478       .  S
C206       C1961   1.487       .  S
C207       C2001   1.480       .  S
C208       C2110   1.485       .  S
C209       C1990   1.481       .  S
C210       C2790   1.484       .  S
C211       C1901   1.481       .  S
C211        N212   1.359       .  A
C211        N216   1.368       .  A
N212        C213   1.353       .  A
C213       C1950   1.481       .  S
C213        N214   1.352       .  A
N214        C215   1.358       .  A
C215       C1921   1.490       .  S
C215        N216   1.367       .  A
C217       C2210   1.484       .  S
C217        N218   1.368       .  A
C217        N222   1.358       .  A
N218        C219   1.368       .  A
C219       C2530   1.489       .  S
C219        N220   1.359       .  A
N220        C221   1.353       .  A
C221       C1941   1.482       .  S
C221        N222   1.354       .  A
C223       C1861   1.488       .  S
C223        N224   1.357       .  A
C223        N228   1.369       .  A
N224        C225   1.347       .  A
C225       C1881   1.467       .  S
C225        N226   1.349       .  A
N226        C227   1.358       .  A
C227       C2730   1.488       .  S
C227        N228   1.370       .  A
C229       C2190   1.475       .  S
C229        N230   1.364       .  A
C229        N234   1.358       .  A
N230        C231   1.364       .  A
C231       C2030   1.480       .  S
C231        N232   1.356       .  A
N232        C233   1.352       .  A
C233       C1890   1.465       .  S
C233        N234   1.353       .  A
C235       C1801   1.483       .  S
C235        N236   1.356       .  A
C235        N240   1.365       .  A
N236        C237   1.351       .  A
C237       C1850   1.478       .  S
C237        N238   1.354       .  A
N238        C239   1.358       .  A
C239       C1821   1.475       .  S
C239        N240   1.365       .  A
C241       C1761   1.488       .  S
C241        N242   1.355       .  A
C241        N246   1.366       .  A
N242        C243   1.350       .  A
C243       C1841   1.480       .  S
C243        N244   1.354       .  A
N244        C245   1.361       .  A
C245       C1781   1.484       .  S
C245        N246   1.368       .  A
Zn247       O251   1.968       .  S
Zn247       O252   2.032       .  S
Zn247       O256   2.044       .  S
Zn247       O263   2.033       .  S
Zn248       O251   1.970       .  S
Zn248       O253   2.021       .  S
Zn248       O255   2.017       .  S
Zn248       O259   2.030       .  S
Zn249       O251   1.963       .  S
Zn249       O254   2.016       .  S
Zn249       O257   2.027       .  S
Zn249       O260   2.024       .  S
Zn250       O251   1.967       .  S
Zn250       O258   2.040       .  S
Zn250       O261   2.025       .  S
Zn250       O262   2.019       .  S
O252        C264   1.276       .  A
O253        C265   1.275       .  A
O254        C266   1.273       .  A
O255        C264   1.273       .  A
O256        C266   1.277       .  A
O257        C265   1.275       .  A
O258        C267   1.276       .  A
O259        C268   1.275       .  A
O260        C267   1.275       .  A
O261        C268   1.275       .  A
O262        C269   1.274       .  A
O263        C269   1.277       .  A
C264       C1870   1.484       .  S
C265       C2610   1.485       .  S
C266       C1741   1.489       .  S
C267       C2070   1.489       .  S
C268       C1790   1.486       .  S
C269       C1930   1.486       .  S
C270       C2150   1.478       .  S
C270        N271   1.370       .  A
C270        N275   1.358       .  A
N271        C272   1.369       .  A
C272       C1710   1.490       .  S
C272        N273   1.356       .  A
N273        C274   1.350       .  A
C274       C1730   1.477       .  S
C274        N275   1.352       .  A
C276       C2941   1.487       .  S
C276        N277   1.366       .  A
C276        N281   1.355       .  A
N277        C278   1.366       .  A
C278       C1681   1.471       .  S
C278        N279   1.357       .  A
N279        C280   1.354       .  A
C280       C1721   1.477       .  S
C280        N281   1.351       .  A
C282       C1621   1.470       .  S
C282        N283   1.357       .  A
C282        N287   1.360       .  A
N283        C284   1.355       .  A
C284       C1670   1.479       .  S
C284        N285   1.357       .  A
N285        C286   1.359       .  A
C286       C1641   1.470       .  S
C286        N287   1.362       .  A
C288       C1601   1.491       .  S
C288        N289   1.369       .  A
C288        N293   1.359       .  A
N289        C290   1.369       .  A
C290       C2501   1.490       .  S
C290        N291   1.360       .  A
N291        C292   1.352       .  A
C292       C1661   1.477       .  S
C292        N293   1.352       .  A
Zn294       O298   1.955       .  S
Zn294       O299   2.006       .  S
Zn294       O303   2.027       .  S
Zn294       O310   1.999       .  S
Zn295       O298   1.972       .  S
Zn295       O300   2.044       .  S
Zn295       O302   2.040       .  S
Zn295       O306   2.008       .  S
Zn296       O298   1.953       .  S
Zn296       O301   2.003       .  S
Zn296       O304   2.009       .  S
Zn296       O307   2.012       .  S
Zn297       O298   1.973       .  S
Zn297       O305   2.035       .  S
Zn297       O308   2.033       .  S
Zn297       O309   2.052       .  S
O299        C311   1.274       .  A
O300        C312   1.276       .  A
O301        C313   1.272       .  A
O302        C311   1.277       .  A
O303        C313   1.274       .  A
O304        C312   1.273       .  A
O305        C314   1.277       .  A
O306        C315   1.273       .  A
O307        C314   1.273       .  A
O308        C315   1.277       .  A
O309        C316   1.277       .  A
O310        C316   1.272       .  A
C311       C1541   1.485       .  S
C312       C1910   1.482       .  S
C313       C1650   1.478       .  S
C314       C1581   1.483       .  S
C315       C1561   1.483       .  S
C316       C1690   1.487       .  S
Zn317       O321   1.958   1_565  S
Zn317       O322   2.012       .  S
Zn317       O326   2.015   1_566  S
Zn317       O333   2.007   1_556  S
Zn318       O321   1.968       .  S
Zn318       O323   2.027       .  S
Zn318       O325   2.024   1_545  S
Zn318       O329   2.013   1_545  S
Zn319       O321   1.967   1_554  S
Zn319       O324   2.040       .  S
Zn319       O327   2.022   1_554  S
Zn319       O330   2.024       .  S
Zn320       O321   1.965   1_564  S
Zn320       O328   2.036   1_565  S
Zn320       O331   2.033   1_554  S
Zn320       O332   2.043       .  S
O322        C334   1.273       .  A
O323        C335   1.275       .  A
O324        C336   1.276       .  A
O325        C334   1.275       .  A
O326        C336   1.274       .  A
O327        C335   1.276       .  A
O328        C337   1.277       .  A
O329        C338   1.273       .  A
O330        C337   1.274       .  A
O331        C338   1.276       .  A
O332        C339   1.277       .  A
O333        C339   1.272       .  A
C334       C1501   1.482       .  S
C335       C1530   1.485       .  S
C336       C1701   1.488       .  S
C337       C1461   1.488       .  S
C338       C1481   1.485       .  S
C339       C2430   1.487       .  S
C340       C2541   1.491       .  S
C340        N341   1.370       .  A
C340        N345   1.360       .  A
N341        C342   1.370       .  A
C342       C2750   1.490       .  S
C342        N343   1.357       .  A
N343        C344   1.349       .  A
C344       C1441   1.481       .  S
C344        N345   1.351       .  A
C346       C1421   1.476       .  S
C346        N347   1.356       .  A
C346        N351   1.362       .  A
N347        C348   1.354       .  A
C348       C1450   1.478       .  S
C348        N349   1.356       .  A
N349        C350   1.359       .  A
C350       C1410   1.475       .  S
C350        N351   1.363       .  A
C352       C1470   1.494       .  S
C352        N353   1.372       .  A
C352        N357   1.358       .  A
N353        C354   1.372       .  A
C354       C2681   1.494       .  S
C354        N355   1.358       .  A
N355        C356   1.349       .  A
C356       C1381   1.479       .  S
C356        N357   1.350       .  A
C358       C2010   1.480       .  S
C358        N359   1.357       .  A
C358        N363   1.364       .  A
N359        C360   1.351       .  A
C360       C1390   1.477       .  S
C360        N361   1.352       .  A
N361        C362   1.358       .  A
C362       C1361   1.480       .  S
C362        N363   1.364       .  A
C364       C2490   1.490       .  S
C364        N365   1.368       .  A
C364        N369   1.362       .  A
N365        C366   1.364       .  A
C366       C2250   1.473       .  S
C366        N367   1.353       .  A
N367        C368   1.351       .  A
C368       C1341   1.479       .  S
C368        N369   1.357       .  A
C370       C1310   1.482       .  S
C370        N371   1.359       .  A
C370        N375   1.369       .  A
N371        C372   1.353       .  A
C372       C1350   1.479       .  S
C372        N373   1.350       .  A
N373        C374   1.355       .  A
C374       C1321   1.488       .  S
C374        N375   1.368       .  A
C376       C1270   1.470       .  S
C376        N377   1.357       .  A
C376        N381   1.365       .  A
N377        C378   1.350       .  A
C378       C1281   1.464       .  S
C378        N379   1.350       .  A
N379        C380   1.357       .  A
C380       C3010   1.481       .  S
C380        N381   1.364       .  A
C382       C1490   1.484       .  S
C382        N383   1.357       .  A
C382        N387   1.365       .  A
N383        C384   1.352       .  A
C384       C1290   1.476       .  S
C384        N385   1.352       .  A
N385        C386   1.358       .  A
C386       C1241   1.481       .  S
C386        N387   1.365       .  A
Zn388       O392   1.962       .  S
Zn388       O393   2.022       .  S
Zn388       O397   2.041       .  S
Zn388       O404   2.025       .  S
Zn389       O392   1.960       .  S
Zn389       O394   2.026       .  S
Zn389       O396   2.009       .  S
Zn389       O400   2.011       .  S
Zn390       O392   1.949       .  S
Zn390       O395   2.003       .  S
Zn390       O398   2.000       .  S
Zn390       O401   2.001       .  S
Zn391       O392   1.965       .  S
Zn391       O399   2.017       .  S
Zn391       O402   2.035       .  S
Zn391       O403   2.011       .  S
O393        C405   1.276       .  A
O394        C406   1.274       .  A
O395        C407   1.271       .  A
O396        C405   1.273       .  A
O397        C407   1.276       .  A
O398        C406   1.272       .  A
O399        C408   1.274       .  A
O400        C409   1.274       .  A
O401        C408   1.272       .  A
O402        C409   1.276       .  A
O403        C410   1.273       .  A
O404        C410   1.275       .  A
C405       C2581   1.479       .  S
C406       C1370   1.481       .  S
C407       C1330   1.486       .  S
C408       C1261   1.477       .  S
C409       C2401   1.486       .  S
C410       C1430   1.480       .  S
C411       C1750   1.491       .  S
C411        N412   1.367       .  A
C411        N416   1.357       .  A
N412        C413   1.367       .  A
C413       C2270   1.476       .  S
C413        N414   1.358       .  A
N414        C415   1.354       .  A
C415       C1230   1.480       .  S
C415        N416   1.353       .  A
C417       C2161   1.492       .  S
C417        N418   1.358       .  A
C417        N422   1.371       .  A
N418        C419   1.349       .  A
C419       C1221   1.479       .  S
C419        N420   1.348       .  A
N420        C421   1.357       .  A
C421       C1210   1.488       .  S
C421        N422   1.371       .  A
Zn423       O427   1.972   1_556  S
Zn423       O428   2.053       .  S
Zn423       O432   2.034   1_556  S
Zn423       O439   2.038       .  S
Zn424       O427   1.967   1_556  S
Zn424       O429   2.039   1_556  S
Zn424       O431   2.011       .  S
Zn424       O435   2.020       .  S
Zn425       O427   1.960       .  S
Zn425       O430   2.010       .  S
Zn425       O433   2.006       .  S
Zn425       O436   2.030       .  S
Zn426       O427   1.963   1_556  S
Zn426       O434   2.025   1_556  S
Zn426       O437   2.024       .  S
Zn426       O438   2.010       .  S
O428        C440   1.278       .  A
O429        C441   1.276       .  A
O430        C442   1.273       .  A
O431        C440   1.272       .  A
O432        C442   1.277       .  A
O433        C441   1.274       .  A
O434        C443   1.274       .  A
O435        C444   1.275       .  A
O436        C443   1.274       .  A
O437        C444   1.275       .  A
O438        C445   1.273       .  A
O439        C445   1.277       .  A
C440       C1181   1.488       .  S
C441       C1201   1.486       .  S
C442       C1161   1.481       .  S
C443       C2390   1.485       .  S
C444       C1141   1.478       .  S
C445       C1830   1.484       .  S
Zn446       O450   1.966   1_655  S
Zn446       O451   2.034   1_565  S
Zn446       O455   2.029       .  S
Zn446       O462   2.017       .  S
Zn447       O450   1.956   1_545  S
Zn447       O452   1.996       .  S
Zn447       O454   2.025   1_455  S
Zn447       O458   1.999       .  S
Zn448       O450   1.972       .  S
Zn448       O453   2.020   1_455  S
Zn448       O456   2.040   1_565  S
Zn448       O459   2.024       .  S
Zn449       O450   1.966       .  S
Zn449       O457   2.033       .  S
Zn449       O460   2.034       .  S
Zn449       O461   2.037       .  S
O451        C463   1.275       .  A
O452        C464   1.273       .  A
O453        C465   1.276       .  A
O454        C463   1.274       .  A
O455        C465   1.276       .  A
O456        C464   1.276       .  A
O457        C466   1.276       .  A
O458        C467   1.271       .  A
O459        C466   1.273       .  A
O460        C467   1.276   1_565  A
O461        C468   1.277   1_455  A
O462        C468   1.274       .  A
C463       C2810   1.487       .  S
C464       C1090   1.483       .  S
C465       C1130   1.481       .  S
C466       C1101   1.487       .  S
C467       C2330   1.482       .  S
C468       C1301   1.485       .  S
C469       C1970   1.490       .  S
C469        N470   1.367       .  A
C469        N474   1.360       .  A
N470        C471   1.365       .  A
C471       C2290   1.474       .  S
C471        N472   1.355       .  A
N472        C473   1.352       .  A
C473       C1061   1.480       .  S
C473        N474   1.354       .  A
C475       C1041   1.488       .  S
C475        N476   1.357       .  A
C475        N480   1.368       .  A
N476        C477   1.352       .  A
C477       C1070   1.479       .  S
C477        N478   1.353       .  A
N478        C479   1.359       .  A
C479       C1110   1.479       .  S
C479        N480   1.368       .  A
C481       C1190   1.482       .  S
C481        N482   1.358       .  A
C481        N486   1.368       .  A
N482        C483   1.353       .  A
C483       C1030   1.478       .  S
C483        N484   1.352       .  A
N484        C485   1.357       .  A
C485       C1590   1.479       .  S
C485        N486   1.367       .  A
C487       C1001   1.485       .  S
C487        N488   1.368       .  A
C487        N492   1.356       .  A
N488        C489   1.368       .  A
C489       C1521   1.488       .  S
C489        N490   1.359       .  A
N490        C491   1.350       .  A
C491       C1021   1.478       .  S
C491        N492   1.348       .  A
C493       C1550   1.481       .  S
C493        N494   1.365       .  A
C493        N498   1.360       .  A
N494        C495   1.364       .  A
C495       C1081   1.486       .  S
C495        N496   1.358       .  A
N496        C497   1.352       .  A
C497        C981   1.480       .  S
C497        N498   1.354       .  A
C499        C961   1.487       .  S
C499        N500   1.366       .  A
C499        N504   1.358       .  A
N500        C501   1.366       .  A
C501       C2561   1.487       .  S
C501        N502   1.360       .  A
N502        C503   1.354       .  A
C503        C990   1.483       .  S
C503        N504   1.353       .  A
C505       C2710   1.483       .  S
C505        N506   1.357       .  A
C505        N510   1.365       .  A
N506        C507   1.352       .  A
C507        C950   1.480       .  S
C507        N508   1.354       .  A
N508        C509   1.358       .  A
C509       C1170   1.473       .  S
C509        N510   1.364       .  A
C511        C921   1.490       .  S
C511        N512   1.367       .  A
C511        N516   1.358       .  A
N512        C513   1.365       .  A
C513        C901   1.475       .  S
C513        N514   1.358       .  A
N514        C515   1.354       .  A
C515        C941   1.481       .  S
C515        N516   1.354       .  A
Zn517       O521   1.956       .  S
Zn517       O522   2.025       .  S
Zn517       O526   2.032       .  S
Zn517       O533   2.027       .  S
Zn518       O521   1.960       .  S
Zn518       O523   2.018       .  S
Zn518       O525   2.017       .  S
Zn518       O529   2.032       .  S
Zn519       O521   1.965       .  S
Zn519       O524   2.022       .  S
Zn519       O527   2.028       .  S
Zn519       O530   2.008       .  S
Zn520       O521   1.966       .  S
Zn520       O528   2.017       .  S
Zn520       O531   2.026       .  S
Zn520       O532   2.026       .  S
O522        C534   1.276       .  A
O523        C535   1.275       .  A
O524        C536   1.273       .  A
O525        C534   1.274       .  A
O526        C536   1.276       .  A
O527        C535   1.274       .  A
O528        C537   1.274       .  A
O529        C538   1.275       .  A
O530        C537   1.274       .  A
O531        C538   1.275       .  A
O532        C539   1.274       .  A
O533        C539   1.276       .  A
C534        C970   1.484       .  S
C535       C1770   1.485       .  S
C536       C2761   1.487       .  S
C537       C1010   1.480       .  S
C538        C930   1.487       .  S
C539        C881   1.485       .  S
C540        C841   1.487       .  S
C540        N541   1.366       .  A
C540        N545   1.357       .  A
N541        C542   1.367       .  A
C542       C3050   1.488       .  S
C542        N543   1.360       .  A
N543        C544   1.353       .  A
C544        C861   1.473       .  S
C544        N545   1.351       .  A
C546        C821   1.488       .  S
C546        N547   1.356       .  A
C546        N551   1.366       .  A
N547        C548   1.350       .  A
C548        C870   1.470       .  S
C548        N549   1.354       .  A
N549        C550   1.361       .  A
C550        C801   1.478       .  S
C550        N551   1.367       .  A
C552        C890   1.488       .  S
C552        N553   1.357       .  A
C552        N557   1.369       .  A
N553        C554   1.350       .  A
C554        C781   1.478       .  S
C554        N555   1.351       .  A
N555        C556   1.359       .  A
C556       C3030   1.491       .  S
C556        N557   1.370       .  A
C558        C761   1.487       .  S
C558        N559   1.365       .  A
C558        N563   1.356       .  A
N559        C560   1.367       .  A
C560       C1121   1.476       .  S
C560        N561   1.359       .  A
N561        C562   1.354       .  A
C562        C790   1.479       .  S
C562        N563   1.351       .  A
Zn564       O568   1.959       .  S
Zn564       O569   2.035       .  S
Zn564       O573   2.024       .  S
Zn564       O580   2.012       .  S
Zn565       O568   1.955       .  S
Zn565       O570   2.010       .  S
Zn565       O572   2.015       .  S
Zn565       O576   1.994       .  S
Zn566       O568   1.965       .  S
Zn566       O571   2.016       .  S
Zn566       O574   2.027       .  S
Zn566       O577   2.015       .  S
Zn567       O568   1.967       .  S
Zn567       O575   2.022       .  S
Zn567       O578   2.032       .  S
Zn567       O579   2.044       .  S
O569        C581   1.277       .  A
O570        C582   1.273       .  A
O571        C583   1.275       .  A
O572        C581   1.273       .  A
O573        C583   1.274       .  A
O574        C582   1.274       .  A
O575        C584   1.275       .  A
O576        C585   1.271       .  A
O577        C584   1.273       .  A
O578        C585   1.276       .  A
O579        C586   1.277       .  A
O580        C586   1.274       .  A
C581        C830   1.485       .  S
C582       C1250   1.483       .  S
C583        C770   1.482       .  S
C584       C2090   1.483       .  S
C585       C1810   1.479       .  S
C586       C2630   1.487       .  S
Zn587       O591   1.971   1_654  S
Zn587       O592   2.032   1_554  S
Zn587       O596   2.046   1_655  S
Zn587       O603   2.017       .  S
Zn588       O591   1.960   1_655  S
Zn588       O593   2.009   1_655  S
Zn588       O595   2.024       .  S
Zn588       O599   2.016       .  S
Zn589       O591   1.965   1_554  S
Zn589       O594   2.022       .  S
Zn589       O597   2.027   1_554  S
Zn589       O600   2.017       .  S
Zn590       O591   1.968   1_654  S
Zn590       O598   2.038   1_655  S
Zn590       O601   2.045   1_554  S
Zn590       O602   2.026       .  S
O592        C604   1.275       .  A
O593        C605   1.273       .  A
O594        C606   1.276       .  A
O595        C604   1.274       .  A
O596        C606   1.277       .  A
O597        C605   1.274       .  A
O598        C607   1.277       .  A
O599        C608   1.273       .  A
O600        C607   1.273       .  A
O601        C608   1.277       .  A
O602        C609   1.276       .  A
O603        C609   1.274       .  A
C604        C810   1.485       .  S
C605       C1630   1.477       .  S
C606        C750   1.488       .  S
C607       C2881   1.488       .  S
C608        C910   1.488       .  S
C609       C1401   1.480       .  S
C610       C1570   1.486       .  S
C610        N611   1.358       .  A
C610        N615   1.367       .  A
N611        C612   1.351       .  A
C612        C721   1.477       .  S
C612        N613   1.349       .  A
N613        C614   1.357       .  A
C614       C1981   1.484       .  S
C614        N615   1.367       .  A
C616       C1510   1.484       .  S
C616        N617   1.356       .  A
C616        N621   1.367       .  A
N617        C618   1.349       .  A
C618        C730   1.475       .  S
C618        N619   1.351       .  A
N619        C620   1.360       .  A
C620        C701   1.483       .  S
C620        N621   1.367       .  A
C622       C2230   1.482       .  S
C622        N623   1.358       .  A
C622        N627   1.368       .  A
N623        C624   1.352       .  A
C624        C690   1.469       .  S
C624        N625   1.352       .  A
N625        C626   1.358       .  A
C626        C741   1.490       .  S
C626        N627   1.367       .  A
C628        C670   1.486       .  S
C628        N629   1.356       .  A
C628        N633   1.366       .  A
N629        C630   1.349       .  A
C630        C681   1.467       .  S
C630        N631   1.351       .  A
N631        C632   1.359       .  A
C632       C1150   1.477       .  S
C632        N633   1.367       .  A
Zn634       O638   1.964       .  S
Zn634       O639   2.022       .  S
Zn634       O643   2.016       .  S
Zn634       O650   2.002       .  S
Zn635       O638   1.966       .  S
Zn635       O640   2.038       .  S
Zn635       O642   2.023       .  S
Zn635       O646   2.021       .  S
Zn636       O638   1.964       .  S
Zn636       O641   2.036       .  S
Zn636       O644   2.021       .  S
Zn636       O647   2.025       .  S
Zn637       O638   1.962       .  S
Zn637       O645   2.030       .  S
Zn637       O648   2.030       .  S
Zn637       O649   2.022       .  S
O639        C651   1.274       .  A
O640        C652   1.277       .  A
O641        C653   1.276       .  A
O642        C651   1.276       .  A
O643        C653   1.275       .  A
O644        C652   1.276       .  A
O645        C654   1.276       .  A
O646        C655   1.274       .  A
O647        C654   1.274       .  A
O648        C655   1.276       .  A
O649        C656   1.275       .  A
O650        C656   1.271       .  A
C651        C710   1.485       .  S
C652       C1050   1.488       .  S
C653       C2050   1.487       .  S
C654       C1610   1.488       .  S
C655        C850   1.485       .  S
C656        C661   1.481       .  S
C657        C658   1.404       .  A
C657        C662   1.400       .  A
C657        H667   1.083       .  S
C658        C663   1.486       .  S
C658        C659   1.407       .  A
C659        C660   1.395       .  A
C659        H664   1.083       .  S
C660        C661   1.403       .  A
C660        H665   1.083       .  S
C661        C662   1.408       .  A
C662        H666   1.083       .  S
C663        C668   1.410       .  A
C663        C672   1.401       .  A
C668        C669   1.406       .  A
C668        H673   1.083       .  S
C669        C670   1.407       .  A
C669        H674   1.083       .  S
C670        C671   1.408       .  A
C671        C672   1.389       .  A
C671        H675   1.083       .  S
C672        H676   1.083       .  S
C677        C678   1.407       .  A
C677        C682   1.393       .  A
C677        H687   1.082       .  S
C678        C683   1.487   1_556  S
C678        C679   1.409   1_556  A
C679        C680   1.398   1_554  A
C679        H684   1.082       .  S
C680        C681   1.401       .  A
C680        H685   1.083       .  S
C681        C682   1.400       .  A
C682        H686   1.084       .  S
C683        C688   1.408       .  A
C683        C692   1.408       .  A
C688        C689   1.394       .  A
C688        H693   1.082   1_554  S
C689        C690   1.400       .  A
C689        H694   1.083       .  S
C690        C691   1.402       .  A
C691        C692   1.398       .  A
C691        H695   1.083       .  S
C692        H696   1.082       .  S
C697        C698   1.409       .  A
C697        C702   1.408       .  A
C697        H707   1.083       .  S
C698        C703   1.486       .  S
C698        C699   1.401       .  A
C699        C700   1.388       .  A
C699        H704   1.083       .  S
C700        C701   1.406       .  A
C700        H705   1.083       .  S
C701        C702   1.407       .  A
C702        H706   1.083       .  S
C703        C708   1.405       .  A
C703        C712   1.406       .  A
C708        C709   1.403       .  A
C708        H713   1.083       .  S
C709        C710   1.409       .  A
C709        H714   1.083       .  S
C710        C711   1.405       .  A
C711        C712   1.395       .  A
C711        H715   1.083       .  S
C712        H716   1.083       .  S
C717        C718   1.403       .  A
C717        C722   1.396   1_565  A
C717        H727   1.083       .  S
C718        C723   1.478       .  S
C718        C719   1.405   1_565  A
C719        C720   1.394       .  A
C719        H724   1.083       .  S
C720        C721   1.404       .  A
C720        H725   1.083       .  S
C721        C722   1.407       .  A
C722        H726   1.083       .  S
C723        C728   1.405       .  A
C723        C732   1.403       .  A
C728        C729   1.398       .  A
C728        H733   1.083       .  S
C729        C730   1.405       .  A
C729        H734   1.083       .  S
C730        C731   1.405       .  A
C731        C732   1.392       .  A
C731        H735   1.083       .  S
C732        H736   1.083   1_565  S
C737        C738   1.401       .  A
C737        C742   1.394       .  A
C737        H747   1.083       .  S
C738        C743   1.486       .  S
C738        C739   1.408       .  A
C739        C740   1.407       .  A
C739        H744   1.083       .  S
C740        C741   1.408       .  A
C740        H745   1.083       .  S
C741        C742   1.409       .  A
C742        H746   1.083       .  S
C743        C748   1.405       .  A
C743        C752   1.405       .  A
C748        C749   1.405       .  A
C748        H753   1.083       .  S
C749        C750   1.409       .  A
C749        H754   1.083       .  S
C750        C751   1.406       .  A
C751        C752   1.397       .  A
C751        H755   1.083       .  S
C752        H756   1.083       .  S
C757        C758   1.400       .  A
C757        C762   1.390       .  A
C757        H767   1.083       .  S
C758        C763   1.484       .  S
C758        C759   1.408       .  A
C759        C760   1.407       .  A
C759        H764   1.083       .  S
C760        C761   1.407       .  A
C760        H765   1.083       .  S
C761        C762   1.408       .  A
C762        H766   1.083       .  S
C763        C768   1.404       .  A
C763        C772   1.406       .  A
C768        C769   1.402       .  A
C768        H773   1.083       .  S
C769        C770   1.408       .  A
C769        H774   1.083       .  S
C770        C771   1.404       .  A
C771        C772   1.395       .  A
C771        H775   1.083       .  S
C772        H776   1.083       .  S
C777        C778   1.403       .  A
C777        C782   1.396       .  A
C777        H787   1.083       .  S
C778        C783   1.478   1_545  S
C778        C779   1.404       .  A
C779        C780   1.396       .  A
C779        H784   1.083   1_545  S
C780        C781   1.405       .  A
C780        H785   1.083       .  S
C781        C782   1.406       .  A
C782        H786   1.083       .  S
C783        C788   1.402       .  A
C783        C792   1.405       .  A
C788        C789   1.394       .  A
C788        H793   1.083       .  S
C789        C790   1.407       .  A
C789        H794   1.083       .  S
C790        C791   1.405       .  A
C791        C792   1.398       .  A
C791        H795   1.083       .  S
C792        H796   1.083   1_565  S
C797        C798   1.408       .  A
C797        C802   1.403       .  A
C797        H807   1.083       .  S
C798        C803   1.487       .  S
C798        C799   1.404       .  A
C799        C800   1.398       .  A
C799        H804   1.083       .  S
C800        C801   1.405       .  A
C800        H805   1.083       .  S
C801        C802   1.404       .  A
C802        H806   1.083       .  S
C803        C808   1.405       .  A
C803        C812   1.405       .  A
C808        C809   1.400       .  A
C808        H813   1.083       .  S
C809        C810   1.406       .  A
C809        H814   1.083       .  S
C810        C811   1.406       .  A
C811        C812   1.401       .  A
C811        H815   1.083       .  S
C812        H816   1.083       .  S
C817        C818   1.400       .  A
C817        C822   1.391       .  A
C817        H827   1.083       .  S
C818        C823   1.484       .  S
C818        C819   1.408       .  A
C819        C820   1.407       .  A
C819        H824   1.083       .  S
C820        C821   1.408       .  A
C820        H825   1.083       .  S
C821        C822   1.409       .  A
C822        H826   1.083       .  S
C823        C828   1.403       .  A
C823        C832   1.406       .  A
C828        C829   1.402       .  A
C828        H833   1.083       .  S
C829        C830   1.410       .  A
C829        H834   1.083       .  S
C830        C831   1.404       .  A
C831        C832   1.397       .  A
C831        H835   1.083       .  S
C832        H836   1.083       .  S
C837        C838   1.404       .  A
C837        C842   1.391       .  A
C837        H847   1.082       .  S
C838        C843   1.493       .  S
C838        C839   1.411       .  A
C839        C840   1.406       .  A
C839        H844   1.082       .  S
C840        C841   1.406       .  A
C840        H845   1.083       .  S
C841        C842   1.407       .  A
C842        H846   1.083       .  S
C843        C848   1.409       .  A
C843        C852   1.407       .  A
C848        C849   1.397       .  A
C848        H853   1.083       .  S
C849        C850   1.404       .  A
C849        H854   1.083       .  S
C850        C851   1.407       .  A
C851        C852   1.401       .  A
C851        H855   1.083       .  S
C852        H856   1.082       .  S
C857        C858   1.407       .  A
C857        C862   1.396       .  A
C857        H867   1.082       .  S
C858        C863   1.491   1_455  S
C858        C859   1.410   1_455  A
C859        C860   1.397   1_655  A
C859        H864   1.082       .  S
C860        C861   1.401       .  A
C860        H865   1.083       .  S
C861        C862   1.403       .  A
C862        H866   1.083       .  S
C863        C868   1.411       .  A
C863        C872   1.407       .  A
C868        C869   1.399       .  A
C868        H873   1.082   1_655  S
C869        C870   1.401       .  A
C869        H874   1.083       .  S
C870        C871   1.401       .  A
C871        C872   1.394       .  A
C871        H875   1.083       .  S
C872        H876   1.082       .  S
C877        C878   1.409       .  A
C877        C882   1.397       .  A
C877        H887   1.082       .  S
C878        C883   1.493       .  S
C878        C879   1.407       .  A
C879        C880   1.402       .  A
C879        H884   1.083       .  S
C880        C881   1.407       .  A
C880        H885   1.083       .  S
C881        C882   1.404       .  A
C882        H886   1.083       .  S
C883        C888   1.403       .  A
C883        C892   1.411       .  A
C888        C889   1.391       .  A
C888        H893   1.083       .  S
C889        C890   1.408       .  A
C889        H894   1.083       .  S
C890        C891   1.406       .  A
C891        C892   1.408       .  A
C891        H895   1.083       .  S
C892        H896   1.082       .  S
C897        C898   1.412       .  A
C897        C902   1.405       .  A
C897        H907   1.082       .  S
C898        C903   1.496       .  S
C898        C899   1.407       .  A
C899        C900   1.397       .  A
C899        H904   1.082       .  S
C900        C901   1.402       .  A
C900        H905   1.083       .  S
C901        C902   1.402       .  A
C902        H906   1.083       .  S
C903        C908   1.407       .  A
C903        C912   1.410       .  A
C908        C909   1.402       .  A
C908        H913   1.083       .  S
C909        C910   1.409       .  A
C909        H914   1.083       .  S
C910        C911   1.404       .  A
C911        C912   1.400       .  A
C911        H915   1.083   1_556  S
C912        H916   1.082       .  S
C917        C918   1.408       .  A
C917        C922   1.404       .  A
C917        H927   1.083       .  S
C918        C923   1.488       .  S
C918        C919   1.403       .  A
C919        C920   1.396       .  A
C919        H924   1.083       .  S
C920        C921   1.410       .  A
C920        H925   1.083       .  S
C921        C922   1.406       .  A
C922        H926   1.083       .  S
C923        C928   1.405       .  A
C923        C932   1.406       .  A
C928        C929   1.402       .  A
C928        H933   1.083       .  S
C929        C930   1.407       .  A
C929        H934   1.083       .  S
C930        C931   1.406       .  A
C931        C932   1.399       .  A
C931        H935   1.083       .  S
C932        H936   1.083       .  S
C937        C938   1.405       .  A
C937        C942   1.398       .  A
C937        H947   1.083   1_556  S
C938        C943   1.479   1_556  S
C938        C939   1.403       .  A
C939        C940   1.394       .  A
C939        H944   1.083       .  S
C940        C941   1.406       .  A
C940        H945   1.083       .  S
C941        C942   1.407       .  A
C942        H946   1.083       .  S
C943        C948   1.403       .  A
C943        C952   1.405       .  A
C948        C949   1.396       .  A
C948        H953   1.083       .  S
C949        C950   1.407       .  A
C949        H954   1.083       .  S
C950        C951   1.405       .  A
C951        C952   1.396       .  A
C951        H955   1.083       .  S
C952        H956   1.083   1_554  S
C957        C958   1.402       .  A
C957        C962   1.391       .  A
C957        H967   1.083       .  S
C958        C963   1.486       .  S
C958        C959   1.408       .  A
C959        C960   1.405       .  A
C959        H964   1.083       .  S
C960        C961   1.407       .  A
C960        H965   1.083       .  S
C961        C962   1.408       .  A
C962        H966   1.083       .  S
C963        C968   1.406       .  A
C963        C972   1.404       .  A
C968        C969   1.396       .  A
C968        H973   1.083       .  S
C969        C970   1.405       .  A
C969        H974   1.083       .  S
C970        C971   1.408       .  A
C971        C972   1.401       .  A
C971        H975   1.083       .  S
C972        H976   1.083       .  S
C977        C978   1.402       .  A
C977        C982   1.396       .  A
C977        H987   1.083   1_455  S
C978        C983   1.476   1_455  S
C978        C979   1.403       .  A
C979        C980   1.399       .  A
C979        H984   1.083       .  S
C980        C981   1.406       .  A
C980        H985   1.083       .  S
C981        C982   1.406       .  A
C982        H986   1.083       .  S
C983        C988   1.403       .  A
C983        C992   1.402       .  A
C988        C989   1.399       .  A
C988        H993   1.083   1_655  S
C989        C990   1.408       .  A
C989        H994   1.083       .  S
C990        C991   1.407       .  A
C991        C992   1.395       .  A
C991        H995   1.083       .  S
C992        H996   1.083       .  S
C997        C998   1.400       .  A
C997       C1002   1.388       .  A
C997       H1007   1.084       .  S
C998       C1003   1.482       .  S
C998        C999   1.408       .  A
C999       C1000   1.406       .  A
C999       H1004   1.083       .  S
C1000      C1001   1.406       .  A
C1000      H1005   1.083       .  S
C1001      C1002   1.409       .  A
C1002      H1006   1.083       .  S
C1003      C1008   1.405       .  A
C1003      C1012   1.404       .  A
C1008      C1009   1.393       .  A
C1008      H1013   1.083       .  S
C1009      C1010   1.404       .  A
C1009      H1014   1.083       .  S
C1010      C1011   1.408       .  A
C1011      C1012   1.401       .  A
C1011      H1015   1.083       .  S
C1012      H1016   1.083       .  S
C1017      C1018   1.405       .  A
C1017      C1022   1.397       .  A
C1017      H1027   1.083       .  S
C1018      C1023   1.480       .  S
C1018      C1019   1.403       .  A
C1019      C1020   1.394       .  A
C1019      H1024   1.083       .  S
C1020      C1021   1.406       .  A
C1020      H1025   1.083       .  S
C1021      C1022   1.405       .  A
C1022      H1026   1.083       .  S
C1023      C1028   1.404       .  A
C1023      C1032   1.405       .  A
C1028      C1029   1.396       .  A
C1028      H1033   1.083       .  S
C1029      C1030   1.406       .  A
C1029      H1034   1.083       .  S
C1030      C1031   1.405       .  A
C1031      C1032   1.395       .  A
C1031      H1035   1.083       .  S
C1032      H1036   1.083       .  S
C1037      C1038   1.410       .  A
C1037      C1042   1.407       .  A
C1037      H1047   1.082       .  S
C1038      C1043   1.491       .  S
C1038      C1039   1.403       .  A
C1039      C1040   1.392       .  A
C1039      H1044   1.083       .  S
C1040      C1041   1.408       .  A
C1040      H1045   1.083       .  S
C1041      C1042   1.406       .  A
C1042      H1046   1.083       .  S
C1043      C1048   1.407       .  A
C1043      C1052   1.407       .  A
C1048      C1049   1.404       .  A
C1048      H1053   1.083       .  S
C1049      C1050   1.408       .  A
C1049      H1054   1.083       .  S
C1050      C1051   1.406       .  A
C1051      C1052   1.397       .  A
C1051      H1055   1.083       .  S
C1052      H1056   1.083       .  S
C1057      C1058   1.404       .  A
C1057      C1062   1.396       .  A
C1057      H1067   1.083       .  S
C1058      C1063   1.477       .  S
C1058      C1059   1.402       .  A
C1059      C1060   1.396       .  A
C1059      H1064   1.083       .  S
C1060      C1061   1.407       .  A
C1060      H1065   1.083       .  S
C1061      C1062   1.406       .  A
C1062      H1066   1.083       .  S
C1063      C1068   1.402       .  A
C1063      C1072   1.404       .  A
C1068      C1069   1.395       .  A
C1068      H1073   1.083       .  S
C1069      C1070   1.406       .  A
C1069      H1074   1.083       .  S
C1070      C1071   1.406       .  A
C1071      C1072   1.397       .  A
C1071      H1075   1.083       .  S
C1072      H1076   1.083       .  S
C1077      C1078   1.401       .  A
C1077      C1082   1.389       .  A
C1077      H1087   1.083       .  S
C1078      C1083   1.482       .  S
C1078      C1079   1.407       .  A
C1079      C1080   1.407       .  A
C1079      H1084   1.083       .  S
C1080      C1081   1.408       .  A
C1080      H1085   1.083       .  S
C1081      C1082   1.407       .  A
C1082      H1086   1.083       .  S
C1083      C1088   1.405       .  A
C1083      C1092   1.403       .  A
C1088      C1089   1.404       .  A
C1088      H1093   1.083       .  S
C1089      C1090   1.408       .  A
C1089      H1094   1.083       .  S
C1090      C1091   1.406       .  A
C1091      C1092   1.392       .  A
C1091      H1095   1.083       .  S
C1092      H1096   1.083       .  S
C1097      C1098   1.408       .  A
C1097      C1102   1.404       .  A
C1097      H1107   1.082       .  S
C1098      C1103   1.499       .  S
C1098      C1099   1.410       .  A
C1099      C1100   1.397       .  A
C1099      H1104   1.082       .  S
C1100      C1101   1.403       .  A
C1100      H1105   1.083       .  S
C1101      C1102   1.408       .  A
C1102      H1106   1.083       .  S
C1103      C1108   1.413       .  A
C1103      C1112   1.407       .  A
C1108      C1109   1.407       .  A
C1108      H1113   1.082       .  S
C1109      C1110   1.403       .  A
C1109      H1114   1.083       .  S
C1110      C1111   1.403       .  A
C1111      C1112   1.394       .  A
C1111      H1115   1.084       .  S
C1112      H1116   1.082       .  S
C1117      C1118   1.407       .  A
C1117      C1122   1.403       .  A
C1117      H1127   1.083       .  S
C1118      C1123   1.482       .  S
C1118      C1119   1.402       .  A
C1119      C1120   1.395       .  A
C1119      H1124   1.083       .  S
C1120      C1121   1.405       .  A
C1120      H1125   1.083       .  S
C1121      C1122   1.404       .  A
C1122      H1126   1.083       .  S
C1123      C1128   1.404       .  A
C1123      C1132   1.405       .  A
C1128      C1129   1.399       .  A
C1128      H1133   1.083       .  S
C1129      C1130   1.407       .  A
C1129      H1134   1.083       .  S
C1130      C1131   1.405       .  A
C1131      C1132   1.400       .  A
C1131      H1135   1.083       .  S
C1132      H1136   1.083       .  S
C1137      C1138   1.404       .  A
C1137      C1142   1.400       .  A
C1137      H1147   1.083       .  S
C1138      C1143   1.481       .  S
C1138      C1139   1.405       .  A
C1139      C1140   1.398       .  A
C1139      H1144   1.083       .  S
C1140      C1141   1.404       .  A
C1140      H1145   1.083       .  S
C1141      C1142   1.406       .  A
C1142      H1146   1.083       .  S
C1143      C1148   1.407       .  A
C1143      C1152   1.402       .  A
C1148      C1149   1.404       .  A
C1148      H1153   1.083       .  S
C1149      C1150   1.405       .  A
C1149      H1154   1.083       .  S
C1150      C1151   1.405       .  A
C1151      C1152   1.394       .  A
C1151      H1155   1.083       .  S
C1152      H1156   1.083       .  S
C1157      C1158   1.406       .  A
C1157      C1162   1.401       .  A
C1157      H1167   1.083       .  S
C1158      C1163   1.491       .  S
C1158      C1159   1.408       .  A
C1159      C1160   1.396       .  A
C1159      H1164   1.082       .  S
C1160      C1161   1.402       .  A
C1160      H1165   1.083       .  S
C1161      C1162   1.407       .  A
C1162      H1166   1.083       .  S
C1163      C1168   1.410       .  A
C1163      C1172   1.406       .  A
C1168      C1169   1.404       .  A
C1168      H1173   1.082       .  S
C1169      C1170   1.403       .  A
C1169      H1174   1.083       .  S
C1170      C1171   1.402       .  A
C1171      C1172   1.393       .  A
C1171      H1175   1.084       .  S
C1172      H1176   1.083       .  S
C1177      C1178   1.407       .  A
C1177      C1182   1.402       .  A
C1177      H1187   1.082       .  S
C1178      C1183   1.499       .  S
C1178      C1179   1.411       .  A
C1179      C1180   1.401       .  A
C1179      H1184   1.082       .  S
C1180      C1181   1.403       .  A
C1180      H1185   1.083       .  S
C1181      C1182   1.408       .  A
C1182      H1186   1.083       .  S
C1183      C1188   1.413       .  A
C1183      C1192   1.406       .  A
C1188      C1189   1.407       .  A
C1188      H1193   1.082       .  S
C1189      C1190   1.404       .  A
C1189      H1194   1.083       .  S
C1190      C1191   1.404       .  A
C1191      C1192   1.395       .  A
C1191      H1195   1.083       .  S
C1192      H1196   1.082       .  S
C1197      C1198   1.406       .  A
C1197      C1202   1.405       .  A
C1197      H1207   1.083       .  S
C1198      C1203   1.488       .  S
C1198      C1199   1.405       .  A
C1199      C1200   1.394       .  A
C1199      H1204   1.083       .  S
C1200      C1201   1.405       .  A
C1200      H1205   1.083       .  S
C1201      C1202   1.408       .  A
C1202      H1206   1.083       .  S
C1203      C1208   1.400       .  A
C1203      C1212   1.410       .  A
C1208      C1209   1.389       .  A
C1208      H1213   1.083       .  S
C1209      C1210   1.408       .  A
C1209      H1214   1.083       .  S
C1210      C1211   1.407       .  A
C1211      C1212   1.410       .  A
C1211      H1215   1.083       .  S
C1212      H1216   1.083       .  S
C1217      C1218   1.403       .  A
C1217      C1222   1.397       .  A
C1217      H1227   1.083       .  S
C1218      C1223   1.478       .  S
C1218      C1219   1.404       .  A
C1219      C1220   1.395       .  A
C1219      H1224   1.083       .  S
C1220      C1221   1.405       .  A
C1220      H1225   1.083       .  S
C1221      C1222   1.407       .  A
C1222      H1226   1.083       .  S
C1223      C1228   1.403       .  A
C1223      C1232   1.404       .  A
C1228      C1229   1.393       .  A
C1228      H1233   1.083       .  S
C1229      C1230   1.406       .  A
C1229      H1234   1.083       .  S
C1230      C1231   1.407       .  A
C1231      C1232   1.399       .  A
C1231      H1235   1.083       .  S
C1232      H1236   1.083       .  S
C1237      C1238   1.408       .  A
C1237      C1242   1.404       .  A
C1237      H1247   1.083       .  S
C1238      C1243   1.486       .  S
C1238      C1239   1.403       .  A
C1239      C1240   1.392       .  A
C1239      H1244   1.083       .  S
C1240      C1241   1.406       .  A
C1240      H1245   1.083       .  S
C1241      C1242   1.406       .  A
C1242      H1246   1.083       .  S
C1243      C1248   1.405       .  A
C1243      C1252   1.406       .  A
C1248      C1249   1.396       .  A
C1248      H1253   1.083       .  S
C1249      C1250   1.406       .  A
C1249      H1254   1.083       .  S
C1250      C1251   1.407       .  A
C1251      C1252   1.401       .  A
C1251      H1255   1.083       .  S
C1252      H1256   1.083       .  S
C1257      C1258   1.402       .  A
C1257      C1262   1.397       .  A
C1257      H1267   1.083       .  S
C1258      C1263   1.472       .  S
C1258      C1259   1.401       .  A
C1259      C1260   1.396       .  A
C1259      H1264   1.083       .  S
C1260      C1261   1.406       .  A
C1260      H1265   1.083       .  S
C1261      C1262   1.406       .  A
C1262      H1266   1.083       .  S
C1263      C1268   1.405       .  A
C1263      C1272   1.400       .  A
C1268      C1269   1.401       .  A
C1268      H1273   1.083       .  S
C1269      C1270   1.403       .  A
C1269      H1274   1.083       .  S
C1270      C1271   1.404       .  A
C1271      C1272   1.393       .  A
C1271      H1275   1.084       .  S
C1272      H1276   1.083       .  S
C1277      C1278   1.404       .  A
C1277      C1282   1.393       .  A
C1277      H1287   1.083       .  S
C1278      C1283   1.474   1_554  S
C1278      C1279   1.405       .  A
C1279      C1280   1.397       .  A
C1279      H1284   1.083       .  S
C1280      C1281   1.402       .  A
C1280      H1285   1.083       .  S
C1281      C1282   1.401       .  A
C1282      H1286   1.083       .  S
C1283      C1288   1.403       .  A
C1283      C1292   1.403       .  A
C1288      C1289   1.394       .  A
C1288      H1293   1.083   1_556  S
C1289      C1290   1.405       .  A
C1289      H1294   1.083       .  S
C1290      C1291   1.406       .  A
C1291      C1292   1.396       .  A
C1291      H1295   1.083       .  S
C1292      H1296   1.083       .  S
C1297      C1298   1.410       .  A
C1297      C1302   1.398       .  A
C1297      H1307   1.082       .  S
C1298      C1303   1.497       .  S
C1298      C1299   1.407       .  A
C1299      C1300   1.401       .  A
C1299      H1304   1.082       .  S
C1300      C1301   1.407       .  A
C1300      H1305   1.083       .  S
C1301      C1302   1.403       .  A
C1302      H1306   1.083   1_655  S
C1303      C1308   1.406       .  A
C1303      C1312   1.412       .  A
C1308      C1309   1.394       .  A
C1308      H1313   1.082       .  S
C1309      C1310   1.404       .  A
C1309      H1314   1.083       .  S
C1310      C1311   1.404       .  A
C1311      C1312   1.406       .  A
C1311      H1315   1.083       .  S
C1312      H1316   1.082       .  S
C1317      C1318   1.411       .  A
C1317      C1322   1.406       .  A
C1317      H1327   1.082       .  S
C1318      C1323   1.490       .  S
C1318      C1319   1.402       .  A
C1319      C1320   1.391       .  A
C1319      H1324   1.083       .  S
C1320      C1321   1.410       .  A
C1320      H1325   1.083       .  S
C1321      C1322   1.405       .  A
C1322      H1326   1.083       .  S
C1323      C1328   1.409       .  A
C1323      C1332   1.404       .  A
C1328      C1329   1.400       .  A
C1328      H1333   1.083       .  S
C1329      C1330   1.404       .  A
C1329      H1334   1.083       .  S
C1330      C1331   1.408       .  A
C1331      C1332   1.399       .  A
C1331      H1335   1.083       .  S
C1332      H1336   1.083       .  S
C1337      C1338   1.406       .  A
C1337      C1342   1.396       .  A
C1337      H1347   1.083   1_455  S
C1338      C1343   1.479       .  S
C1338      C1339   1.402       .  A
C1339      C1340   1.396       .  A
C1339      H1344   1.083       .  S
C1340      C1341   1.408       .  A
C1340      H1345   1.083       .  S
C1341      C1342   1.404       .  A
C1342      H1346   1.083       .  S
C1343      C1348   1.402   1_455  A
C1343      C1352   1.405       .  A
C1348      C1349   1.393       .  A
C1348      H1353   1.083       .  S
C1349      C1350   1.407       .  A
C1349      H1354   1.083       .  S
C1350      C1351   1.405       .  A
C1351      C1352   1.397   1_655  A
C1351      H1355   1.083       .  S
C1352      H1356   1.083       .  S
C1357      C1358   1.403       .  A
C1357      C1362   1.390       .  A
C1357      H1367   1.083       .  S
C1358      C1363   1.483       .  S
C1358      C1359   1.407       .  A
C1359      C1360   1.403       .  A
C1359      H1364   1.083       .  S
C1360      C1361   1.406       .  A
C1360      H1365   1.083       .  S
C1361      C1362   1.406       .  A
C1362      H1366   1.083       .  S
C1363      C1368   1.405       .  A
C1363      C1372   1.405       .  A
C1368      C1369   1.401       .  A
C1368      H1373   1.083       .  S
C1369      C1370   1.407       .  A
C1369      H1374   1.083       .  S
C1370      C1371   1.405       .  A
C1371      C1372   1.393       .  A
C1371      H1375   1.083       .  S
C1372      H1376   1.083       .  S
C1377      C1378   1.403       .  A
C1377      C1382   1.395       .  A
C1377      H1387   1.083   1_545  S
C1378      C1383   1.475   1_545  S
C1378      C1379   1.402       .  A
C1379      C1380   1.396       .  A
C1379      H1384   1.083       .  S
C1380      C1381   1.407       .  A
C1380      H1385   1.083       .  S
C1381      C1382   1.406       .  A
C1382      H1386   1.083       .  S
C1383      C1388   1.403       .  A
C1383      C1392   1.402       .  A
C1388      C1389   1.396       .  A
C1388      H1393   1.083   1_565  S
C1389      C1390   1.407       .  A
C1389      H1394   1.083       .  S
C1390      C1391   1.405       .  A
C1391      C1392   1.395       .  A
C1391      H1395   1.083       .  S
C1392      H1396   1.083       .  S
C1397      C1398   1.408       .  A
C1397      C1402   1.400       .  A
C1397      H1407   1.082       .  S
C1398      C1403   1.493       .  S
C1398      C1399   1.409       .  A
C1399      C1400   1.397       .  A
C1399      H1404   1.082       .  S
C1400      C1401   1.402       .  A
C1400      H1405   1.083       .  S
C1401      C1402   1.406       .  A
C1402      H1406   1.083       .  S
C1403      C1408   1.410       .  A
C1403      C1412   1.408       .  A
C1408      C1409   1.401       .  A
C1408      H1413   1.082       .  S
C1409      C1410   1.403       .  A
C1409      H1414   1.083       .  S
C1410      C1411   1.402       .  A
C1411      C1412   1.396       .  A
C1411      H1415   1.083       .  S
C1412      H1416   1.082       .  S
C1417      C1418   1.411       .  A
C1417      C1422   1.401       .  A
C1417      H1427   1.082       .  S
C1418      C1423   1.493       .  S
C1418      C1419   1.407       .  A
C1419      C1420   1.394       .  A
C1419      H1424   1.082       .  S
C1420      C1421   1.403       .  A
C1420      H1425   1.083       .  S
C1421      C1422   1.402       .  A
C1422      H1426   1.083       .  S
C1423      C1428   1.407       .  A
C1423      C1432   1.410       .  A
C1428      C1429   1.399       .  A
C1428      H1433   1.082       .  S
C1429      C1430   1.406       .  A
C1429      H1434   1.083       .  S
C1430      C1431   1.403       .  A
C1431      C1432   1.397       .  A
C1431      H1435   1.083       .  S
C1432      H1436   1.082       .  S
C1437      C1438   1.405       .  A
C1437      C1442   1.397       .  A
C1437      H1447   1.083       .  S
C1438      C1443   1.480       .  S
C1438      C1439   1.403       .  A
C1439      C1440   1.395       .  A
C1439      H1444   1.083       .  S
C1440      C1441   1.406       .  A
C1440      H1445   1.083       .  S
C1441      C1442   1.406       .  A
C1442      H1446   1.083       .  S
C1443      C1448   1.403       .  A
C1443      C1452   1.406       .  A
C1448      C1449   1.395       .  A
C1448      H1453   1.083       .  S
C1449      C1450   1.406       .  A
C1449      H1454   1.083       .  S
C1450      C1451   1.405       .  A
C1451      C1452   1.398       .  A
C1451      H1455   1.083       .  S
C1452      H1456   1.083       .  S
C1457      C1458   1.407       .  A
C1457      C1462   1.404       .  A
C1457      H1467   1.083       .  S
C1458      C1463   1.497       .  S
C1458      C1459   1.410       .  A
C1459      C1460   1.398       .  A
C1459      H1464   1.082       .  S
C1460      C1461   1.404       .  A
C1460      H1465   1.083       .  S
C1461      C1462   1.409       .  A
C1462      H1466   1.083       .  S
C1463      C1468   1.413       .  A
C1463      C1472   1.402       .  A
C1468      C1469   1.410       .  A
C1468      H1473   1.082       .  S
C1469      C1470   1.407       .  A
C1469      H1474   1.083       .  S
C1470      C1471   1.410       .  A
C1471      C1472   1.391       .  A
C1471      H1475   1.083       .  S
C1472      H1476   1.083       .  S
C1477      C1478   1.404       .  A
C1477      C1482   1.400       .  A
C1477      H1487   1.083       .  S
C1478      C1483   1.486       .  S
C1478      C1479   1.407       .  A
C1479      C1480   1.397       .  A
C1479      H1484   1.083       .  S
C1480      C1481   1.405       .  A
C1480      H1485   1.083   1_556  S
C1481      C1482   1.409       .  A
C1482      H1486   1.083       .  S
C1483      C1488   1.408       .  A
C1483      C1492   1.402       .  A
C1488      C1489   1.404       .  A
C1488      H1493   1.083       .  S
C1489      C1490   1.406       .  A
C1489      H1494   1.083       .  S
C1490      C1491   1.407       .  A
C1491      C1492   1.392       .  A
C1491      H1495   1.083       .  S
C1492      H1496   1.083       .  S
C1497      C1498   1.406       .  A
C1497      C1502   1.396       .  A
C1497      H1507   1.083       .  S
C1498      C1503   1.481       .  S
C1498      C1499   1.402       .  A
C1499      C1500   1.400       .  A
C1499      H1504   1.083       .  S
C1500      C1501   1.409       .  A
C1500      H1505   1.083       .  S
C1501      C1502   1.404       .  A
C1502      H1506   1.083       .  S
C1503      C1508   1.399       .  A
C1503      C1512   1.408       .  A
C1508      C1509   1.389       .  A
C1508      H1513   1.084       .  S
C1509      C1510   1.409       .  A
C1509      H1514   1.083       .  S
C1510      C1511   1.406       .  A
C1511      C1512   1.406       .  A
C1511      H1515   1.083       .  S
C1512      H1516   1.083       .  S
C1517      C1518   1.400       .  A
C1517      C1522   1.389       .  A
C1517      H1527   1.084       .  S
C1518      C1523   1.484       .  S
C1518      C1519   1.408       .  A
C1519      C1520   1.408       .  A
C1519      H1524   1.083       .  S
C1520      C1521   1.408       .  A
C1520      H1525   1.083       .  S
C1521      C1522   1.408       .  A
C1522      H1526   1.083       .  S
C1523      C1528   1.405       .  A
C1523      C1532   1.404       .  A
C1528      C1529   1.394       .  A
C1528      H1533   1.083       .  S
C1529      C1530   1.404       .  A
C1529      H1534   1.083       .  S
C1530      C1531   1.410       .  A
C1531      C1532   1.404       .  A
C1531      H1535   1.083       .  S
C1532      H1536   1.083       .  S
C1537      C1538   1.405       .  A
C1537      C1542   1.395       .  A
C1537      H1547   1.083       .  S
C1538      C1543   1.487       .  S
C1538      C1539   1.406       .  A
C1539      C1540   1.402       .  A
C1539      H1544   1.083       .  S
C1540      C1541   1.407       .  A
C1540      H1545   1.083       .  S
C1541      C1542   1.407       .  A
C1542      H1546   1.083       .  S
C1543      C1548   1.408       .  A
C1543      C1552   1.404       .  A
C1548      C1549   1.404       .  A
C1548      H1553   1.083       .  S
C1549      C1550   1.406       .  A
C1549      H1554   1.083       .  S
C1550      C1551   1.405       .  A
C1551      C1552   1.392       .  A
C1551      H1555   1.083       .  S
C1552      H1556   1.083       .  S
C1557      C1558   1.404       .  A
C1557      C1562   1.400       .  A
C1557      H1567   1.083       .  S
C1558      C1563   1.486       .  S
C1558      C1559   1.407       .  A
C1559      C1560   1.396       .  A
C1559      H1564   1.083       .  S
C1560      C1561   1.404       .  A
C1560      H1565   1.083       .  S
C1561      C1562   1.409       .  A
C1562      H1566   1.083       .  S
C1563      C1568   1.401       .  A
C1563      C1572   1.409       .  A
C1568      C1569   1.390       .  A
C1568      H1573   1.083       .  S
C1569      C1570   1.408       .  A
C1569      H1574   1.083       .  S
C1570      C1571   1.407       .  A
C1571      C1572   1.406       .  A
C1571      H1575   1.083       .  S
C1572      H1576   1.083       .  S
C1577      C1578   1.407       .  A
C1577      C1582   1.401       .  A
C1577      H1587   1.082       .  S
C1578      C1583   1.496       .  S
C1578      C1579   1.410       .  A
C1579      C1580   1.398       .  A
C1579      H1584   1.082       .  S
C1580      C1581   1.402       .  A
C1580      H1585   1.083       .  S
C1581      C1582   1.407       .  A
C1582      H1586   1.083       .  S
C1583      C1588   1.412       .  A
C1583      C1592   1.406       .  A
C1588      C1589   1.406       .  A
C1588      H1593   1.082       .  S
C1589      C1590   1.403       .  A
C1589      H1594   1.083       .  S
C1590      C1591   1.404       .  A
C1591      C1592   1.394       .  A
C1591      H1595   1.084       .  S
C1592      H1596   1.082       .  S
C1597      C1598   1.403       .  A
C1597      C1602   1.394       .  A
C1597      H1607   1.083       .  S
C1598      C1603   1.492       .  S
C1598      C1599   1.410       .  A
C1599      C1600   1.408       .  A
C1599      H1604   1.082       .  S
C1600      C1601   1.407       .  A
C1600      H1605   1.083       .  S
C1601      C1602   1.409       .  A
C1602      H1606   1.083       .  S
C1603      C1608   1.408       .  A
C1603      C1612   1.406       .  A
C1608      C1609   1.398       .  A
C1608      H1613   1.083       .  S
C1609      C1610   1.405       .  A
C1609      H1614   1.083       .  S
C1610      C1611   1.409       .  A
C1611      C1612   1.403       .  A
C1611      H1615   1.083       .  S
C1612      H1616   1.083       .  S
C1617      C1618   1.410       .  A
C1617      C1622   1.403       .  A
C1617      H1627   1.082       .  S
C1618      C1623   1.491       .  S
C1618      C1619   1.407       .  A
C1619      C1620   1.393       .  A
C1619      H1624   1.082       .  S
C1620      C1621   1.399       .  A
C1620      H1625   1.084       .  S
C1621      C1622   1.403       .  A
C1622      H1626   1.083       .  S
C1623      C1628   1.408       .  A
C1623      C1632   1.408       .  A
C1628      C1629   1.403       .  A
C1628      H1633   1.082       .  S
C1629      C1630   1.406       .  A
C1629      H1634   1.083       .  S
C1630      C1631   1.401       .  A
C1631      C1632   1.393       .  A
C1631      H1635   1.083       .  S
C1632      H1636   1.082       .  S
C1637      C1638   1.410       .  A
C1637      C1642   1.400       .  A
C1637      H1647   1.081       .  S
C1638      C1643   1.495       .  S
C1638      C1639   1.410       .  A
C1639      C1640   1.397       .  A
C1639      H1644   1.082       .  S
C1640      C1641   1.400       .  A
C1640      H1645   1.083       .  S
C1641      C1642   1.401       .  A
C1642      H1646   1.083       .  S
C1643      C1648   1.410       .  A
C1643      C1652   1.409       .  A
C1648      C1649   1.401       .  A
C1648      H1653   1.082       .  S
C1649      C1650   1.404       .  A
C1649      H1654   1.083       .  S
C1650      C1651   1.403       .  A
C1651      C1652   1.395       .  A
C1651      H1655   1.083       .  S
C1652      H1656   1.082       .  S
C1657      C1658   1.403       .  A
C1657      C1662   1.396       .  A
C1657      H1667   1.083       .  S
C1658      C1663   1.479       .  S
C1658      C1659   1.405       .  A
C1659      C1660   1.400       .  A
C1659      H1664   1.083       .  S
C1660      C1661   1.406       .  A
C1660      H1665   1.083       .  S
C1661      C1662   1.404       .  A
C1662      H1666   1.083       .  S
C1663      C1668   1.404       .  A
C1663      C1672   1.403       .  A
C1668      C1669   1.398       .  A
C1668      H1673   1.083       .  S
C1669      C1670   1.405       .  A
C1669      H1674   1.083       .  S
C1670      C1671   1.407       .  A
C1671      C1672   1.398       .  A
C1671      H1675   1.083       .  S
C1672      H1676   1.083       .  S
C1677      C1678   1.411       .  A
C1677      C1682   1.400       .  A
C1677      H1687   1.082       .  S
C1678      C1683   1.495       .  S
C1678      C1679   1.408       .  A
C1679      C1680   1.399       .  A
C1679      H1684   1.082       .  S
C1680      C1681   1.403       .  A
C1680      H1685   1.083       .  S
C1681      C1682   1.399       .  A
C1682      H1686   1.083       .  S
C1683      C1688   1.405       .  A
C1683      C1692   1.411       .  A
C1688      C1689   1.396       .  A
C1688      H1693   1.082       .  S
C1689      C1690   1.407       .  A
C1689      H1694   1.083       .  S
C1690      C1691   1.405       .  A
C1691      C1692   1.404       .  A
C1691      H1695   1.083       .  S
C1692      H1696   1.082       .  S
C1697      C1698   1.406       .  A
C1697      C1702   1.397       .  A
C1697      H1707   1.083       .  S
C1698      C1703   1.488       .  S
C1698      C1699   1.405       .  A
C1699      C1700   1.404       .  A
C1699      H1704   1.083       .  S
C1700      C1701   1.408       .  A
C1700      H1705   1.083       .  S
C1701      C1702   1.407       .  A
C1702      H1706   1.083       .  S
C1703      C1708   1.401       .  A
C1703      C1712   1.410       .  A
C1708      C1709   1.392       .  A
C1708      H1713   1.083       .  S
C1709      C1710   1.410       .  A
C1709      H1714   1.083       .  S
C1710      C1711   1.406       .  A
C1711      C1712   1.409       .  A
C1711      H1715   1.083       .  S
C1712      H1716   1.083       .  S
C1717      C1718   1.404       .  A
C1717      C1722   1.396       .  A
C1717      H1727   1.083       .  S
C1718      C1723   1.475   1_556  S
C1718      C1719   1.402   1_556  A
C1719      C1720   1.394   1_554  A
C1719      H1724   1.083       .  S
C1720      C1721   1.407       .  A
C1720      H1725   1.083       .  S
C1721      C1722   1.405       .  A
C1722      H1726   1.083       .  S
C1723      C1728   1.402       .  A
C1723      C1732   1.404       .  A
C1728      C1729   1.393       .  A
C1728      H1733   1.083   1_554  S
C1729      C1730   1.406       .  A
C1729      H1734   1.083       .  S
C1730      C1731   1.406       .  A
C1731      C1732   1.397       .  A
C1731      H1735   1.083       .  S
C1732      H1736   1.083       .  S
C1737      C1738   1.406       .  A
C1737      C1742   1.401       .  A
C1737      H1747   1.082       .  S
C1738      C1743   1.495       .  S
C1738      C1739   1.410       .  A
C1739      C1740   1.400       .  A
C1739      H1744   1.082       .  S
C1740      C1741   1.405       .  A
C1740      H1745   1.083       .  S
C1741      C1742   1.409       .  A
C1742      H1746   1.083       .  S
C1743      C1748   1.411       .  A
C1743      C1752   1.404       .  A
C1748      C1749   1.407       .  A
C1748      H1753   1.082       .  S
C1749      C1750   1.406       .  A
C1749      H1754   1.083       .  S
C1750      C1751   1.409       .  A
C1751      C1752   1.394       .  A
C1751      H1755   1.083       .  S
C1752      H1756   1.083       .  S
C1757      C1758   1.400       .  A
C1757      C1762   1.389       .  A
C1757      H1767   1.084       .  S
C1758      C1763   1.484       .  S
C1758      C1759   1.408       .  A
C1759      C1760   1.408       .  A
C1759      H1764   1.083       .  S
C1760      C1761   1.407       .  A
C1760      H1765   1.083       .  S
C1761      C1762   1.409       .  A
C1762      H1766   1.083       .  S
C1763      C1768   1.405       .  A
C1763      C1772   1.404       .  A
C1768      C1769   1.394       .  A
C1768      H1773   1.083       .  S
C1769      C1770   1.405       .  A
C1769      H1774   1.083       .  S
C1770      C1771   1.409       .  A
C1771      C1772   1.404       .  A
C1771      H1775   1.083       .  S
C1772      H1776   1.083       .  S
C1777      C1778   1.408       .  A
C1777      C1782   1.406       .  A
C1777      H1787   1.083       .  S
C1778      C1783   1.486       .  S
C1778      C1779   1.403       .  A
C1779      C1780   1.394       .  A
C1779      H1784   1.083       .  S
C1780      C1781   1.406       .  A
C1780      H1785   1.083       .  S
C1781      C1782   1.407       .  A
C1782      H1786   1.083       .  S
C1783      C1788   1.405       .  A
C1783      C1792   1.405       .  A
C1788      C1789   1.403       .  A
C1788      H1793   1.083       .  S
C1789      C1790   1.408       .  A
C1789      H1794   1.083       .  S
C1790      C1791   1.406       .  A
C1791      C1792   1.397       .  A
C1791      H1795   1.083       .  S
C1792      H1796   1.083       .  S
C1797      C1798   1.409       .  A
C1797      C1802   1.404       .  A
C1797      H1807   1.083       .  S
C1798      C1803   1.486       .  S
C1798      C1799   1.402       .  A
C1799      C1800   1.390       .  A
C1799      H1804   1.083       .  S
C1800      C1801   1.407       .  A
C1800      H1805   1.083       .  S
C1801      C1802   1.406       .  A
C1802      H1806   1.083       .  S
C1803      C1808   1.408       .  A
C1803      C1812   1.404       .  A
C1808      C1809   1.397       .  A
C1808      H1813   1.083       .  S
C1809      C1810   1.403       .  A
C1809      H1814   1.083       .  S
C1810      C1811   1.407       .  A
C1811      C1812   1.397       .  A
C1811      H1815   1.083       .  S
C1812      H1816   1.083       .  S
C1817      C1818   1.406       .  A
C1817      C1822   1.395       .  A
C1817      H1827   1.082       .  S
C1818      C1823   1.493       .  S
C1818      C1819   1.411       .  A
C1819      C1820   1.402       .  A
C1819      H1824   1.082       .  S
C1820      C1821   1.402       .  A
C1820      H1825   1.083       .  S
C1821      C1822   1.403       .  A
C1822      H1826   1.083       .  S
C1823      C1828   1.410       .  A
C1823      C1832   1.406       .  A
C1828      C1829   1.399       .  A
C1828      H1833   1.082       .  S
C1829      C1830   1.404       .  A
C1829      H1834   1.083       .  S
C1830      C1831   1.407       .  A
C1831      C1832   1.399       .  A
C1831      H1835   1.083       .  S
C1832      H1836   1.082       .  S
C1837      C1838   1.406       .  A
C1837      C1842   1.398       .  A
C1837      H1847   1.083       .  S
C1838      C1843   1.479       .  S
C1838      C1839   1.402       .  A
C1839      C1840   1.394       .  A
C1839      H1844   1.083       .  S
C1840      C1841   1.407       .  A
C1840      H1845   1.083       .  S
C1841      C1842   1.405       .  A
C1842      H1846   1.083       .  S
C1843      C1848   1.403       .  A
C1843      C1852   1.405       .  A
C1848      C1849   1.395       .  A
C1848      H1853   1.083       .  S
C1849      C1850   1.407       .  A
C1849      H1854   1.083       .  S
C1850      C1851   1.405       .  A
C1851      C1852   1.396       .  A
C1851      H1855   1.083       .  S
C1852      H1856   1.083       .  S
C1857      C1858   1.402       .  A
C1857      C1862   1.390       .  A
C1857      H1867   1.083       .  S
C1858      C1863   1.492       .  S
C1858      C1859   1.411       .  A
C1859      C1860   1.408       .  A
C1859      H1864   1.082       .  S
C1860      C1861   1.406       .  A
C1860      H1865   1.083       .  S
C1861      C1862   1.408       .  A
C1862      H1866   1.083       .  S
C1863      C1868   1.409       .  A
C1863      C1872   1.406       .  A
C1868      C1869   1.397       .  A
C1868      H1873   1.083       .  S
C1869      C1870   1.403       .  A
C1869      H1874   1.083       .  S
C1870      C1871   1.408       .  A
C1871      C1872   1.402       .  A
C1871      H1875   1.083       .  S
C1872      H1876   1.083       .  S
C1877      C1878   1.408       .  A
C1877      C1882   1.394       .  A
C1877      H1887   1.082       .  S
C1878      C1883   1.486       .  S
C1878      C1879   1.407       .  A
C1879      C1880   1.395       .  A
C1879      H1884   1.082       .  S
C1880      C1881   1.402       .  A
C1880      H1885   1.083       .  S
C1881      C1882   1.400       .  A
C1882      H1886   1.083       .  S
C1883      C1888   1.407       .  A
C1883      C1892   1.409       .  A
C1888      C1889   1.393       .  A
C1888      H1893   1.082       .  S
C1889      C1890   1.400       .  A
C1889      H1894   1.083       .  S
C1890      C1891   1.401       .  A
C1891      C1892   1.397       .  A
C1891      H1895   1.083       .  S
C1892      H1896   1.082       .  S
C1897      C1898   1.408       .  A
C1897      C1902   1.406       .  A
C1897      H1907   1.083       .  S
C1898      C1903   1.486       .  S
C1898      C1899   1.403       .  A
C1899      C1900   1.395       .  A
C1899      H1904   1.083       .  S
C1900      C1901   1.406       .  A
C1900      H1905   1.084       .  S
C1901      C1902   1.405       .  A
C1902      H1906   1.083       .  S
C1903      C1908   1.406       .  A
C1903      C1912   1.404       .  A
C1908      C1909   1.403       .  A
C1908      H1913   1.083       .  S
C1909      C1910   1.406       .  A
C1909      H1914   1.083       .  S
C1910      C1911   1.405       .  A
C1911      C1912   1.398       .  A
C1911      H1915   1.083       .  S
C1912      H1916   1.083       .  S
C1917      C1918   1.403       .  A
C1917      C1922   1.392       .  A
C1917      H1927   1.083       .  S
C1918      C1923   1.493       .  S
C1918      C1919   1.411       .  A
C1919      C1920   1.408       .  A
C1919      H1924   1.083       .  S
C1920      C1921   1.407       .  A
C1920      H1925   1.083       .  S
C1921      C1922   1.408       .  A
C1922      H1926   1.083       .  S
C1923      C1928   1.409       .  A
C1923      C1932   1.406       .  A
C1928      C1929   1.398       .  A
C1928      H1933   1.083       .  S
C1929      C1930   1.404       .  A
C1929      H1934   1.083       .  S
C1930      C1931   1.408       .  A
C1931      C1932   1.402       .  A
C1931      H1935   1.083       .  S
C1932      H1936   1.083       .  S
C1937      C1938   1.404       .  A
C1937      C1942   1.396       .  A
C1937      H1947   1.083       .  S
C1938      C1943   1.480       .  S
C1938      C1939   1.404       .  A
C1939      C1940   1.398       .  A
C1939      H1944   1.083       .  S
C1940      C1941   1.407       .  A
C1940      H1945   1.083       .  S
C1941      C1942   1.406       .  A
C1942      H1946   1.083       .  S
C1943      C1948   1.404       .  A
C1943      C1952   1.403       .  A
C1948      C1949   1.398       .  A
C1948      H1953   1.083       .  S
C1949      C1950   1.406       .  A
C1949      H1954   1.083       .  S
C1950      C1951   1.407       .  A
C1951      C1952   1.395       .  A
C1951      H1955   1.083       .  S
C1952      H1956   1.083       .  S
C1957      C1958   1.405       .  A
C1957      C1962   1.397       .  A
C1957      H1967   1.083       .  S
C1958      C1963   1.486       .  S
C1958      C1959   1.405       .  A
C1959      C1960   1.403       .  A
C1959      H1964   1.083       .  S
C1960      C1961   1.408       .  A
C1960      H1965   1.083       .  S
C1961      C1962   1.406       .  A
C1962      H1966   1.083       .  S
C1963      C1968   1.401       .  A
C1963      C1972   1.407       .  A
C1968      C1969   1.393       .  A
C1968      H1973   1.083       .  S
C1969      C1970   1.408       .  A
C1969      H1974   1.083       .  S
C1970      C1971   1.408       .  A
C1971      C1972   1.407       .  A
C1971      H1975   1.083       .  S
C1972      H1976   1.083       .  S
C1977      C1978   1.399       .  A
C1977      C1982   1.387       .  A
C1977      H1987   1.084       .  S
C1978      C1983   1.479       .  S
C1978      C1979   1.407       .  A
C1979      C1980   1.407       .  A
C1979      H1984   1.083       .  S
C1980      C1981   1.407       .  A
C1980      H1985   1.083       .  S
C1981      C1982   1.408       .  A
C1982      H1986   1.083       .  S
C1983      C1988   1.404       .  A
C1983      C1992   1.403       .  A
C1988      C1989   1.393       .  A
C1988      H1993   1.083       .  S
C1989      C1990   1.404       .  A
C1989      H1994   1.083       .  S
C1990      C1991   1.409       .  A
C1991      C1992   1.401       .  A
C1991      H1995   1.083       .  S
C1992      H1996   1.083       .  S
C1997      C1998   1.405       .  A
C1997      C2002   1.394       .  A
C1997      H2007   1.083       .  S
C1998      C2003   1.479       .  S
C1998      C1999   1.402       .  A
C1999      C2000   1.400       .  A
C1999      H2004   1.083       .  S
C2000      C2001   1.409       .  A
C2000      H2005   1.083       .  S
C2001      C2002   1.404       .  A
C2002      H2006   1.083   1_565  S
C2003      C2008   1.401       .  A
C2003      C2012   1.407       .  A
C2008      C2009   1.389       .  A
C2008      H2013   1.084       .  S
C2009      C2010   1.406       .  A
C2009      H2014   1.083       .  S
C2010      C2011   1.407       .  A
C2011      C2012   1.404       .  A
C2011      H2015   1.083       .  S
C2012      H2016   1.083       .  S
C2017      C2018   1.410       .  A
C2017      C2022   1.400       .  A
C2017      H2027   1.082       .  S
C2018      C2023   1.491       .  S
C2018      C2019   1.406       .  A
C2019      C2020   1.396       .  A
C2019      H2024   1.082       .  S
C2020      C2021   1.404       .  A
C2020      H2025   1.083       .  S
C2021      C2022   1.403       .  A
C2022      H2026   1.083       .  S
C2023      C2028   1.405       .  A
C2023      C2032   1.410       .  A
C2028      C2029   1.394       .  A
C2028      H2033   1.082       .  S
C2029      C2030   1.406       .  A
C2029      H2034   1.083       .  S
C2030      C2031   1.403       .  A
C2031      C2032   1.401       .  A
C2031      H2035   1.083       .  S
C2032      H2036   1.082       .  S
C2037      C2038   1.402       .  A
C2037      C2042   1.391       .  A
C2037      H2047   1.083       .  S
C2038      C2043   1.488       .  S
C2038      C2039   1.409       .  A
C2039      C2040   1.408       .  A
C2039      H2044   1.083       .  S
C2040      C2041   1.407       .  A
C2040      H2045   1.083       .  S
C2041      C2042   1.408       .  A
C2042      H2046   1.083       .  S
C2043      C2048   1.406       .  A
C2043      C2052   1.406       .  A
C2048      C2049   1.396       .  A
C2048      H2053   1.083       .  S
C2049      C2050   1.406       .  A
C2049      H2054   1.083       .  S
C2050      C2051   1.408       .  A
C2051      C2052   1.404       .  A
C2051      H2055   1.083       .  S
C2052      H2056   1.083       .  S
C2057      C2058   1.410       .  A
C2057      C2062   1.407       .  A
C2057      H2067   1.083       .  S
C2058      C2063   1.493       .  S
C2058      C2059   1.404       .  A
C2059      C2060   1.394       .  A
C2059      H2064   1.083       .  S
C2060      C2061   1.407       .  A
C2060      H2065   1.083       .  S
C2061      C2062   1.406       .  A
C2062      H2066   1.083       .  S
C2063      C2068   1.407       .  A
C2063      C2072   1.407       .  A
C2068      C2069   1.403       .  A
C2068      H2073   1.083       .  S
C2069      C2070   1.407       .  A
C2069      H2074   1.083       .  S
C2070      C2071   1.406       .  A
C2071      C2072   1.398       .  A
C2071      H2075   1.083       .  S
C2072      H2076   1.083       .  S
C2077      C2078   1.408       .  A
C2077      C2082   1.408       .  A
C2077      H2087   1.083       .  S
C2078      C2083   1.480       .  S
C2078      C2079   1.398       .  A
C2079      C2080   1.388       .  A
C2079      H2084   1.084       .  S
C2080      C2081   1.409       .  A
C2080      H2085   1.083       .  S
C2081      C2082   1.407       .  A
C2082      H2086   1.083       .  S
C2083      C2088   1.405       .  A
C2083      C2092   1.402       .  A
C2088      C2089   1.395       .  A
C2088      H2093   1.083       .  S
C2089      C2090   1.405       .  A
C2089      H2094   1.083       .  S
C2090      C2091   1.409       .  A
C2091      C2092   1.402       .  A
C2091      H2095   1.083       .  S
C2092      H2096   1.083       .  S
C2097      C2098   1.409       .  A
C2097      C2102   1.408       .  A
C2097      H2107   1.083       .  S
C2098      C2103   1.486       .  S
C2098      C2099   1.401       .  A
C2099      C2100   1.390       .  A
C2099      H2104   1.083       .  S
C2100      C2101   1.408       .  A
C2100      H2105   1.082       .  S
C2101      C2102   1.408       .  A
C2102      H2106   1.083       .  S
C2103      C2108   1.404       .  A
C2103      C2112   1.406       .  A
C2108      C2109   1.402       .  A
C2108      H2113   1.083       .  S
C2109      C2110   1.409       .  A
C2109      H2114   1.083       .  S
C2110      C2111   1.405       .  A
C2111      C2112   1.396       .  A
C2111      H2115   1.083       .  S
C2112      H2116   1.083       .  S
C2117      C2118   1.404       .  A
C2117      C2122   1.397       .  A
C2117      H2127   1.083       .  S
C2118      C2123   1.476       .  S
C2118      C2119   1.402       .  A
C2119      C2120   1.394       .  A
C2119      H2124   1.083       .  S
C2120      C2121   1.406       .  A
C2120      H2125   1.083       .  S
C2121      C2122   1.405       .  A
C2122      H2126   1.083       .  S
C2123      C2128   1.402       .  A
C2123      C2132   1.404       .  A
C2128      C2129   1.395       .  A
C2128      H2133   1.083       .  S
C2129      C2130   1.407       .  A
C2129      H2134   1.083       .  S
C2130      C2131   1.405       .  A
C2131      C2132   1.397       .  A
C2131      H2135   1.083       .  S
C2132      H2136   1.083       .  S
C2137      C2138   1.408       .  A
C2137      C2142   1.402       .  A
C2137      H2147   1.082       .  S
C2138      C2143   1.498       .  S
C2138      C2139   1.410       .  A
C2139      C2140   1.399       .  A
C2139      H2144   1.082       .  S
C2140      C2141   1.404       .  A
C2140      H2145   1.083       .  S
C2141      C2142   1.407       .  A
C2142      H2146   1.083       .  S
C2143      C2148   1.412       .  A
C2143      C2152   1.407       .  A
C2148      C2149   1.406       .  A
C2148      H2153   1.082       .  S
C2149      C2150   1.402       .  A
C2149      H2154   1.083       .  S
C2150      C2151   1.404       .  A
C2151      C2152   1.396       .  A
C2151      H2155   1.084       .  S
C2152      H2156   1.082       .  S
C2157      C2158   1.410       .  A
C2157      C2162   1.411       .  A
C2157      H2167   1.083       .  S
C2158      C2163   1.489       .  S
C2158      C2159   1.400       .  A
C2159      C2160   1.389       .  A
C2159      H2164   1.084       .  S
C2160      C2161   1.409       .  A
C2160      H2165   1.082       .  S
C2161      C2162   1.409       .  A
C2162      H2166   1.083       .  S
C2163      C2168   1.405       .  A
C2163      C2172   1.406       .  A
C2168      C2169   1.393       .  A
C2168      H2173   1.083       .  S
C2169      C2170   1.405       .  A
C2169      H2174   1.083       .  S
C2170      C2171   1.410       .  A
C2171      C2172   1.407       .  A
C2171      H2175   1.083       .  S
C2172      H2176   1.083       .  S
C2177      C2178   1.402       .  A
C2177      C2182   1.396       .  A
C2177      H2187   1.083       .  S
C2178      C2183   1.479       .  S
C2178      C2179   1.405       .  A
C2179      C2180   1.401       .  A
C2179      H2184   1.083       .  S
C2180      C2181   1.406       .  A
C2180      H2185   1.083       .  S
C2181      C2182   1.406       .  A
C2182      H2186   1.083       .  S
C2183      C2188   1.406       .  A
C2183      C2192   1.402       .  A
C2188      C2189   1.400       .  A
C2188      H2193   1.083       .  S
C2189      C2190   1.403       .  A
C2189      H2194   1.083       .  S
C2190      C2191   1.406       .  A
C2191      C2192   1.396       .  A
C2191      H2195   1.083       .  S
C2192      H2196   1.083       .  S
C2197      C2198   1.406       .  A
C2197      C2202   1.402       .  A
C2197      H2207   1.083       .  S
C2198      C2203   1.487       .  S
C2198      C2199   1.404       .  A
C2199      C2200   1.402       .  A
C2199      H2204   1.083       .  S
C2200      C2201   1.408       .  A
C2200      H2205   1.083       .  S
C2201      C2202   1.405       .  A
C2202      H2206   1.083       .  S
C2203      C2208   1.402       .  A
C2203      C2212   1.408       .  A
C2208      C2209   1.397       .  A
C2208      H2213   1.083       .  S
C2209      C2210   1.407       .  A
C2209      H2214   1.083       .  S
C2210      C2211   1.405       .  A
C2211      C2212   1.406       .  A
C2211      H2215   1.083       .  S
C2212      H2216   1.083       .  S
C2217      C2218   1.406       .  A
C2217      C2222   1.400       .  A
C2217      H2227   1.083       .  S
C2218      C2223   1.486       .  S
C2218      C2219   1.405       .  A
C2219      C2220   1.400       .  A
C2219      H2224   1.083       .  S
C2220      C2221   1.406       .  A
C2220      H2225   1.083       .  S
C2221      C2222   1.405       .  A
C2222      H2226   1.083       .  S
C2223      C2228   1.403       .  A
C2223      C2232   1.408       .  A
C2228      C2229   1.396       .  A
C2228      H2233   1.083       .  S
C2229      C2230   1.407       .  A
C2229      H2234   1.083       .  S
C2230      C2231   1.405       .  A
C2231      C2232   1.404       .  A
C2231      H2235   1.083       .  S
C2232      H2236   1.083       .  S
C2237      C2238   1.406       .  A
C2237      C2242   1.401       .  A
C2237      H2247   1.082       .  S
C2238      C2243   1.494       .  S
C2238      C2239   1.409       .  A
C2239      C2240   1.398       .  A
C2239      H2244   1.082       .  S
C2240      C2241   1.404       .  A
C2240      H2245   1.083       .  S
C2241      C2242   1.408       .  A
C2242      H2246   1.083       .  S
C2243      C2248   1.412       .  A
C2243      C2252   1.406       .  A
C2248      C2249   1.404       .  A
C2248      H2253   1.082       .  S
C2249      C2250   1.402       .  A
C2249      H2254   1.083       .  S
C2250      C2251   1.402       .  A
C2251      C2252   1.395       .  A
C2251      H2255   1.084       .  S
C2252      H2256   1.082       .  S
C2257      C2258   1.403       .  A
C2257      C2262   1.398       .  A
C2257      H2267   1.083       .  S
C2258      C2263   1.484       .  S
C2258      C2259   1.406       .  A
C2259      C2260   1.403       .  A
C2259      H2264   1.083       .  S
C2260      C2261   1.407       .  A
C2260      H2265   1.083       .  S
C2261      C2262   1.407       .  A
C2262      H2266   1.083       .  S
C2263      C2268   1.408       .  A
C2263      C2272   1.403       .  A
C2268      C2269   1.403       .  A
C2268      H2273   1.083       .  S
C2269      C2270   1.403       .  A
C2269      H2274   1.083       .  S
C2270      C2271   1.405       .  A
C2271      C2272   1.397       .  A
C2271      H2275   1.083       .  S
C2272      H2276   1.083       .  S
C2277      C2278   1.406       .  A
C2277      C2282   1.400       .  A
C2277      H2287   1.082       .  S
C2278      C2283   1.492       .  S
C2278      C2279   1.409       .  A
C2279      C2280   1.398       .  A
C2279      H2284   1.082       .  S
C2280      C2281   1.404       .  A
C2280      H2285   1.083       .  S
C2281      C2282   1.406       .  A
C2282      H2286   1.083       .  S
C2283      C2288   1.411       .  A
C2283      C2292   1.406       .  A
C2288      C2289   1.404       .  A
C2288      H2293   1.082       .  S
C2289      C2290   1.402       .  A
C2289      H2294   1.083       .  S
C2290      C2291   1.403       .  A
C2291      C2292   1.394       .  A
C2291      H2295   1.084       .  S
C2292      H2296   1.082       .  S
C2297      C2298   1.410       .  A
C2297      C2302   1.409       .  A
C2297      H2307   1.083       .  S
C2298      C2303   1.493       .  S
C2298      C2299   1.403       .  A
C2299      C2300   1.394       .  A
C2299      H2304   1.083       .  S
C2300      C2301   1.407       .  A
C2300      H2305   1.083       .  S
C2301      C2302   1.407       .  A
C2302      H2306   1.083       .  S
C2303      C2308   1.408       .  A
C2303      C2312   1.405       .  A
C2308      C2309   1.400       .  A
C2308      H2313   1.083       .  S
C2309      C2310   1.405       .  A
C2309      H2314   1.083       .  S
C2310      C2311   1.410       .  A
C2311      C2312   1.404       .  A
C2311      H2315   1.083       .  S
C2312      H2316   1.083       .  S
C2317      C2318   1.410       .  A
C2317      C2322   1.405       .  A
C2317      H2327   1.082       .  S
C2318      C2323   1.489       .  S
C2318      C2319   1.403       .  A
C2319      C2320   1.390       .  A
C2319      H2324   1.082       .  S
C2320      C2321   1.406       .  A
C2320      H2325   1.083       .  S
C2321      C2322   1.406       .  A
C2322      H2326   1.083       .  S
C2323      C2328   1.409       .  A
C2323      C2332   1.405       .  A
C2328      C2329   1.397       .  A
C2328      H2333   1.083       .  S
C2329      C2330   1.403       .  A
C2329      H2334   1.083   1_545  S
C2330      C2331   1.408       .  A
C2331      C2332   1.398       .  A
C2331      H2335   1.083       .  S
C2332      H2336   1.082       .  S
C2337      C2338   1.410       .  A
C2337      C2342   1.403       .  A
C2337      H2347   1.082       .  S
C2338      C2343   1.493       .  S
C2338      C2339   1.406       .  A
C2339      C2340   1.394       .  A
C2339      H2344   1.082       .  S
C2340      C2341   1.404       .  A
C2340      H2345   1.083       .  S
C2341      C2342   1.404       .  A
C2342      H2346   1.083       .  S
C2343      C2348   1.408       .  A
C2343      C2352   1.409       .  A
C2348      C2349   1.402       .  A
C2348      H2353   1.082       .  S
C2349      C2350   1.406       .  A
C2349      H2354   1.083       .  S
C2350      C2351   1.402       .  A
C2351      C2352   1.395       .  A
C2351      H2355   1.083       .  S
C2352      H2356   1.082       .  S
C2357      C2358   1.401       .  A
C2357      C2362   1.395       .  A
C2357      H2367   1.083   1_565  S
C2358      C2363   1.478   1_565  S
C2358      C2359   1.405       .  A
C2359      C2360   1.399       .  A
C2359      H2364   1.083       .  S
C2360      C2361   1.405       .  A
C2360      H2365   1.083       .  S
C2361      C2362   1.408       .  A
C2362      H2366   1.083       .  S
C2363      C2368   1.404       .  A
C2363      C2372   1.402       .  A
C2368      C2369   1.397       .  A
C2368      H2373   1.083       .  S
C2369      C2370   1.406       .  A
C2369      H2374   1.083       .  S
C2370      C2371   1.407       .  A
C2371      C2372   1.395       .  A
C2371      H2375   1.083       .  S
C2372      H2376   1.083   1_545  S
C2377      C2378   1.404       .  A
C2377      C2382   1.397       .  A
C2377      H2387   1.083       .  S
C2378      C2383   1.486       .  S
C2378      C2379   1.408       .  A
C2379      C2380   1.403       .  A
C2379      H2384   1.083       .  S
C2380      C2381   1.403       .  A
C2380      H2385   1.083       .  S
C2381      C2382   1.405       .  A
C2382      H2386   1.083       .  S
C2383      C2388   1.406       .  A
C2383      C2392   1.405       .  A
C2388      C2389   1.401       .  A
C2388      H2393   1.083       .  S
C2389      C2390   1.407       .  A
C2389      H2394   1.083       .  S
C2390      C2391   1.407       .  A
C2391      C2392   1.400       .  A
C2391      H2395   1.083       .  S
C2392      H2396   1.083       .  S
C2397      C2398   1.403       .  A
C2397      C2402   1.396       .  A
C2397      H2407   1.083       .  S
C2398      C2403   1.482       .  S
C2398      C2399   1.404       .  A
C2399      C2400   1.403       .  A
C2399      H2404   1.083       .  S
C2400      C2401   1.408       .  A
C2400      H2405   1.083       .  S
C2401      C2402   1.407       .  A
C2402      H2406   1.083       .  S
C2403      C2408   1.406       .  A
C2403      C2412   1.401       .  A
C2408      C2409   1.405       .  A
C2408      H2413   1.083       .  S
C2409      C2410   1.408       .  A
C2409      H2414   1.083       .  S
C2410      C2411   1.409       .  A
C2411      C2412   1.394       .  A
C2411      H2415   1.083       .  S
C2412      H2416   1.083       .  S
C2417      C2418   1.403       .  A
C2417      C2422   1.393       .  A
C2417      H2427   1.083       .  S
C2418      C2423   1.493       .  S
C2418      C2419   1.411       .  A
C2419      C2420   1.408       .  A
C2419      H2424   1.083       .  S
C2420      C2421   1.407       .  A
C2420      H2425   1.083       .  S
C2421      C2422   1.408       .  A
C2422      H2426   1.083       .  S
C2423      C2428   1.409       .  A
C2423      C2432   1.406       .  A
C2428      C2429   1.398       .  A
C2428      H2433   1.083       .  S
C2429      C2430   1.404       .  A
C2429      H2434   1.083       .  S
C2430      C2431   1.409       .  A
C2431      C2432   1.402       .  A
C2431      H2435   1.083       .  S
C2432      H2436   1.083       .  S
C2437      C2438   1.410       .  A
C2437      C2442   1.404       .  A
C2437      H2447   1.083       .  S
C2438      C2443   1.492       .  S
C2438      C2439   1.405       .  A
C2439      C2440   1.398       .  A
C2439      H2444   1.083       .  S
C2440      C2441   1.405       .  A
C2440      H2445   1.083       .  S
C2441      C2442   1.403       .  A
C2442      H2446   1.083       .  S
C2443      C2448   1.406       .  A
C2443      C2452   1.408       .  A
C2448      C2449   1.400       .  A
C2448      H2453   1.083       .  S
C2449      C2450   1.406       .  A
C2449      H2454   1.083       .  S
C2450      C2451   1.405       .  A
C2451      C2452   1.402       .  A
C2451      H2455   1.083       .  S
C2452      H2456   1.083       .  S
C2457      C2458   1.405       .  A
C2457      C2462   1.399       .  A
C2457      H2467   1.083       .  S
C2458      C2463   1.482       .  S
C2458      C2459   1.404       .  A
C2459      C2460   1.395       .  A
C2459      H2464   1.083       .  S
C2460      C2461   1.406       .  A
C2460      H2465   1.083       .  S
C2461      C2462   1.407       .  A
C2462      H2466   1.083       .  S
C2463      C2468   1.404       .  A
C2463      C2472   1.404       .  A
C2468      C2469   1.396       .  A
C2468      H2473   1.083       .  S
C2469      C2470   1.406       .  A
C2469      H2474   1.083       .  S
C2470      C2471   1.407       .  A
C2471      C2472   1.399       .  A
C2471      H2475   1.083       .  S
C2472      H2476   1.083       .  S
C2477      C2478   1.406       .  A
C2477      C2482   1.403       .  A
C2477      H2487   1.083       .  S
C2478      C2483   1.491       .  S
C2478      C2479   1.406       .  A
C2479      C2480   1.399       .  A
C2479      H2484   1.083       .  S
C2480      C2481   1.406       .  A
C2480      H2485   1.083       .  S
C2481      C2482   1.408       .  A
C2482      H2486   1.083       .  S
C2483      C2488   1.408       .  A
C2483      C2492   1.404       .  A
C2488      C2489   1.405       .  A
C2488      H2493   1.083       .  S
C2489      C2490   1.407       .  A
C2489      H2494   1.083       .  S
C2490      C2491   1.408       .  A
C2491      C2492   1.397       .  A
C2491      H2495   1.083       .  S
C2492      H2496   1.083       .  S
C2497      C2498   1.403       .  A
C2497      C2502   1.393       .  A
C2497      H2507   1.083       .  S
C2498      C2503   1.494       .  S
C2498      C2499   1.411       .  A
C2499      C2500   1.409       .  A
C2499      H2504   1.082       .  S
C2500      C2501   1.407       .  A
C2500      H2505   1.083       .  S
C2501      C2502   1.408       .  A
C2502      H2506   1.083       .  S
C2503      C2508   1.409       .  A
C2503      C2512   1.406       .  A
C2508      C2509   1.400       .  A
C2508      H2513   1.083       .  S
C2509      C2510   1.404       .  A
C2509      H2514   1.083       .  S
C2510      C2511   1.408       .  A
C2511      C2512   1.402       .  A
C2511      H2515   1.083       .  S
C2512      H2516   1.083       .  S
C2517      C2518   1.410       .  A
C2517      C2522   1.400       .  A
C2517      H2527   1.082       .  S
C2518      C2523   1.497       .  S
C2518      C2519   1.408       .  A
C2519      C2520   1.402       .  A
C2519      H2524   1.082       .  S
C2520      C2521   1.407       .  A
C2520      H2525   1.083       .  S
C2521      C2522   1.404       .  A
C2522      H2526   1.083       .  S
C2523      C2528   1.405       .  A
C2523      C2532   1.412       .  A
C2528      C2529   1.394       .  A
C2528      H2533   1.082       .  S
C2529      C2530   1.407       .  A
C2529      H2534   1.083       .  S
C2530      C2531   1.406       .  A
C2531      C2532   1.407       .  A
C2531      H2535   1.083       .  S
C2532      H2536   1.082       .  S
C2537      C2538   1.409       .  A
C2537      C2542   1.410       .  A
C2537      H2547   1.083       .  S
C2538      C2543   1.488       .  S
C2538      C2539   1.401       .  A
C2539      C2540   1.390       .  A
C2539      H2544   1.083       .  S
C2540      C2541   1.409       .  A
C2540      H2545   1.083       .  S
C2541      C2542   1.408       .  A
C2542      H2546   1.083       .  S
C2543      C2548   1.406       .  A
C2543      C2552   1.405       .  A
C2548      C2549   1.406       .  A
C2548      H2553   1.083       .  S
C2549      C2550   1.410       .  A
C2549      H2554   1.083       .  S
C2550      C2551   1.405       .  A
C2551      C2552   1.395       .  A
C2551      H2555   1.083       .  S
C2552      H2556   1.083       .  S
C2557      C2558   1.408       .  A
C2557      C2562   1.407       .  A
C2557      H2567   1.083       .  S
C2558      C2563   1.487       .  S
C2558      C2559   1.402       .  A
C2559      C2560   1.392       .  A
C2559      H2564   1.083       .  S
C2560      C2561   1.407       .  A
C2560      H2565   1.083       .  S
C2561      C2562   1.408       .  A
C2562      H2566   1.083       .  S
C2563      C2568   1.404       .  A
C2563      C2572   1.406       .  A
C2568      C2569   1.403       .  A
C2568      H2573   1.083       .  S
C2569      C2570   1.410       .  A
C2569      H2574   1.083       .  S
C2570      C2571   1.405       .  A
C2571      C2572   1.397       .  A
C2571      H2575   1.083   1_655  S
C2572      H2576   1.083       .  S
C2577      C2578   1.406       .  A
C2577      C2582   1.401       .  A
C2577      H2587   1.082       .  S
C2578      C2583   1.489       .  S
C2578      C2579   1.408       .  A
C2579      C2580   1.394       .  A
C2579      H2584   1.082       .  S
C2580      C2581   1.402       .  A
C2580      H2585   1.083       .  S
C2581      C2582   1.407       .  A
C2582      H2586   1.083       .  S
C2583      C2588   1.410       .  A
C2583      C2592   1.406       .  A
C2588      C2589   1.403       .  A
C2588      H2593   1.082       .  S
C2589      C2590   1.402       .  A
C2589      H2594   1.083       .  S
C2590      C2591   1.400       .  A
C2591      C2592   1.392       .  A
C2591      H2595   1.084       .  S
C2592      H2596   1.083       .  S
C2597      C2598   1.406       .  A
C2597      C2602   1.402       .  A
C2597      H2607   1.083       .  S
C2598      C2603   1.484       .  S
C2598      C2599   1.403       .  A
C2599      C2600   1.395       .  A
C2599      H2604   1.083       .  S
C2600      C2601   1.406       .  A
C2600      H2605   1.083       .  S
C2601      C2602   1.406       .  A
C2602      H2606   1.083       .  S
C2603      C2608   1.404       .  A
C2603      C2612   1.405       .  A
C2608      C2609   1.400       .  A
C2608      H2613   1.083       .  S
C2609      C2610   1.408       .  A
C2609      H2614   1.083       .  S
C2610      C2611   1.406       .  A
C2611      C2612   1.398       .  A
C2611      H2615   1.083       .  S
C2612      H2616   1.083       .  S
C2617      C2618   1.410       .  A
C2617      C2622   1.405       .  A
C2617      H2627   1.083       .  S
C2618      C2623   1.492       .  S
C2618      C2619   1.403       .  A
C2619      C2620   1.395       .  A
C2619      H2624   1.083       .  S
C2620      C2621   1.409       .  A
C2620      H2625   1.083       .  S
C2621      C2622   1.405       .  A
C2622      H2626   1.083       .  S
C2623      C2628   1.409       .  A
C2623      C2632   1.405       .  A
C2628      C2629   1.402       .  A
C2628      H2633   1.083       .  S
C2629      C2630   1.406       .  A
C2629      H2634   1.083       .  S
C2630      C2631   1.408       .  A
C2631      C2632   1.398       .  A
C2631      H2635   1.083       .  S
C2632      H2636   1.083       .  S
C2637      C2638   1.408       .  A
C2637      C2642   1.408       .  A
C2637      H2647   1.083       .  S
C2638      C2643   1.484       .  S
C2638      C2639   1.400       .  A
C2639      C2640   1.391       .  A
C2639      H2644   1.084       .  S
C2640      C2641   1.408       .  A
C2640      H2645   1.083       .  S
C2641      C2642   1.407       .  A
C2642      H2646   1.083       .  S
C2643      C2648   1.404       .  A
C2643      C2652   1.405       .  A
C2648      C2649   1.403       .  A
C2648      H2653   1.083       .  S
C2649      C2650   1.409       .  A
C2649      H2654   1.083       .  S
C2650      C2651   1.406       .  A
C2651      C2652   1.396       .  A
C2651      H2655   1.083       .  S
C2652      H2656   1.083       .  S
C2657      C2658   1.403       .  A
C2657      C2662   1.396       .  A
C2657      H2667   1.083       .  S
C2658      C2663   1.477       .  S
C2658      C2659   1.403       .  A
C2659      C2660   1.397       .  A
C2659      H2664   1.083       .  S
C2660      C2661   1.407       .  A
C2660      H2665   1.083       .  S
C2661      C2662   1.406       .  A
C2662      H2666   1.083       .  S
C2663      C2668   1.404       .  A
C2663      C2672   1.402       .  A
C2668      C2669   1.397       .  A
C2668      H2673   1.083       .  S
C2669      C2670   1.404       .  A
C2669      H2674   1.083       .  S
C2670      C2671   1.408       .  A
C2671      C2672   1.397       .  A
C2671      H2675   1.083       .  S
C2672      H2676   1.083       .  S
C2677      C2678   1.401       .  A
C2677      C2682   1.390       .  A
C2677      H2687   1.083       .  S
C2678      C2683   1.492       .  S
C2678      C2679   1.411       .  A
C2679      C2680   1.412       .  A
C2679      H2684   1.083       .  S
C2680      C2681   1.408       .  A
C2680      H2685   1.083       .  S
C2681      C2682   1.410       .  A
C2682      H2686   1.083       .  S
C2683      C2688   1.408       .  A
C2683      C2692   1.405       .  A
C2688      C2689   1.398       .  A
C2688      H2693   1.083       .  S
C2689      C2690   1.405       .  A
C2689      H2694   1.083       .  S
C2690      C2691   1.410       .  A
C2691      C2692   1.405       .  A
C2691      H2695   1.083       .  S
C2692      H2696   1.083       .  S
C2697      C2698   1.407       .  A
C2697      C2702   1.397       .  A
C2697      H2707   1.083       .  S
C2698      C2703   1.482       .  S
C2698      C2699   1.402       .  A
C2699      C2700   1.398       .  A
C2699      H2704   1.083       .  S
C2700      C2701   1.408       .  A
C2700      H2705   1.083       .  S
C2701      C2702   1.403       .  A
C2702      H2706   1.083       .  S
C2703      C2708   1.401       .  A
C2703      C2712   1.407       .  A
C2708      C2709   1.392       .  A
C2708      H2713   1.083       .  S
C2709      C2710   1.408       .  A
C2709      H2714   1.083       .  S
C2710      C2711   1.406       .  A
C2711      C2712   1.403       .  A
C2711      H2715   1.083       .  S
C2712      H2716   1.083       .  S
C2717      C2718   1.404       .  A
C2717      C2722   1.400       .  A
C2717      H2727   1.083       .  S
C2718      C2723   1.488       .  S
C2718      C2719   1.408       .  A
C2719      C2720   1.397       .  A
C2719      H2724   1.083       .  S
C2720      C2721   1.403       .  A
C2720      H2725   1.083       .  S
C2721      C2722   1.409       .  A
C2722      H2726   1.083       .  S
C2723      C2728   1.410       .  A
C2723      C2732   1.401       .  A
C2728      C2729   1.407       .  A
C2728      H2733   1.083       .  S
C2729      C2730   1.407       .  A
C2729      H2734   1.083       .  S
C2730      C2731   1.408       .  A
C2731      C2732   1.390       .  A
C2731      H2735   1.083       .  S
C2732      H2736   1.083       .  S
C2737      C2738   1.406       .  A
C2737      C2742   1.395       .  A
C2737      H2747   1.083       .  S
C2738      C2743   1.491       .  S
C2738      C2739   1.407       .  A
C2739      C2740   1.406       .  A
C2739      H2744   1.083       .  S
C2740      C2741   1.408       .  A
C2740      H2745   1.083       .  S
C2741      C2742   1.406       .  A
C2742      H2746   1.083       .  S
C2743      C2748   1.402       .  A
C2743      C2752   1.410       .  A
C2748      C2749   1.390       .  A
C2748      H2753   1.083       .  S
C2749      C2750   1.409       .  A
C2749      H2754   1.083       .  S
C2750      C2751   1.407       .  A
C2751      C2752   1.410       .  A
C2751      H2755   1.083       .  S
C2752      H2756   1.083       .  S
C2757      C2758   1.407       .  A
C2757      C2762   1.403       .  A
C2757      H2767   1.082       .  S
C2758      C2763   1.495       .  S
C2758      C2759   1.409       .  A
C2759      C2760   1.397       .  A
C2759      H2764   1.082       .  S
C2760      C2761   1.404       .  A
C2760      H2765   1.083       .  S
C2761      C2762   1.408       .  A
C2762      H2766   1.083       .  S
C2763      C2768   1.412       .  A
C2763      C2772   1.403       .  A
C2768      C2769   1.409       .  A
C2768      H2773   1.082       .  S
C2769      C2770   1.407       .  A
C2769      H2774   1.083       .  S
C2770      C2771   1.407       .  A
C2771      C2772   1.390       .  A
C2771      H2775   1.083       .  S
C2772      H2776   1.082       .  S
C2777      C2778   1.409       .  A
C2777      C2782   1.408       .  A
C2777      H2787   1.083       .  S
C2778      C2783   1.484       .  S
C2778      C2779   1.400       .  A
C2779      C2780   1.389       .  A
C2779      H2784   1.083       .  S
C2780      C2781   1.408       .  A
C2780      H2785   1.083       .  S
C2781      C2782   1.407       .  A
C2782      H2786   1.083       .  S
C2783      C2788   1.403       .  A
C2783      C2792   1.407       .  A
C2788      C2789   1.400       .  A
C2788      H2793   1.083       .  S
C2789      C2790   1.409       .  A
C2789      H2794   1.083       .  S
C2790      C2791   1.404       .  A
C2791      C2792   1.397       .  A
C2791      H2795   1.083       .  S
C2792      H2796   1.083       .  S
C2797      C2798   1.402       .  A
C2797      C2802   1.396       .  A
C2797      H2807   1.083       .  S
C2798      C2803   1.483       .  S
C2798      C2799   1.407       .  A
C2799      C2800   1.405       .  A
C2799      H2804   1.083       .  S
C2800      C2801   1.405       .  A
C2800      H2805   1.083       .  S
C2801      C2802   1.406       .  A
C2802      H2806   1.083       .  S
C2803      C2808   1.404       .  A
C2803      C2812   1.404       .  A
C2808      C2809   1.401       .  A
C2808      H2813   1.083       .  S
C2809      C2810   1.407       .  A
C2809      H2814   1.083       .  S
C2810      C2811   1.408       .  A
C2811      C2812   1.401       .  A
C2811      H2815   1.083       .  S
C2812      H2816   1.083       .  S
C2817      C2818   1.410       .  A
C2817      C2822   1.406       .  A
C2817      H2827   1.082       .  S
C2818      C2823   1.494       .  S
C2818      C2819   1.405       .  A
C2819      C2820   1.394       .  A
C2819      H2824   1.082       .  S
C2820      C2821   1.406       .  A
C2820      H2825   1.083       .  S
C2821      C2822   1.406       .  A
C2822      H2826   1.083       .  S
C2823      C2828   1.407       .  A
C2823      C2832   1.408       .  A
C2828      C2829   1.402       .  A
C2828      H2833   1.083       .  S
C2829      C2830   1.408       .  A
C2829      H2834   1.083       .  S
C2830      C2831   1.404       .  A
C2831      C2832   1.398       .  A
C2831      H2835   1.083       .  S
C2832      H2836   1.082       .  S
C2837      C2838   1.403       .  A
C2837      C2842   1.396       .  A
C2837      H2847   1.083       .  S
C2838      C2843   1.479       .  S
C2838      C2839   1.404       .  A
C2839      C2840   1.397       .  A
C2839      H2844   1.083       .  S
C2840      C2841   1.407       .  A
C2840      H2845   1.083       .  S
C2841      C2842   1.406       .  A
C2842      H2846   1.083       .  S
C2843      C2848   1.403       .  A
C2843      C2852   1.404       .  A
C2848      C2849   1.396       .  A
C2848      H2853   1.083       .  S
C2849      C2850   1.406       .  A
C2849      H2854   1.083       .  S
C2850      C2851   1.406       .  A
C2851      C2852   1.397       .  A
C2851      H2855   1.083       .  S
C2852      H2856   1.083       .  S
C2857      C2858   1.407       .  A
C2857      C2862   1.403       .  A
C2857      H2867   1.083       .  S
C2858      C2863   1.493       .  S
C2858      C2859   1.408       .  A
C2859      C2860   1.397       .  A
C2859      H2864   1.082       .  S
C2860      C2861   1.405       .  A
C2860      H2865   1.083       .  S
C2861      C2862   1.408       .  A
C2862      H2866   1.083       .  S
C2863      C2868   1.411       .  A
C2863      C2872   1.403       .  A
C2868      C2869   1.408       .  A
C2868      H2873   1.082       .  S
C2869      C2870   1.406       .  A
C2869      H2874   1.083       .  S
C2870      C2871   1.407       .  A
C2871      C2872   1.391       .  A
C2871      H2875   1.083       .  S
C2872      H2876   1.083       .  S
C2877      C2878   1.405       .  A
C2877      C2882   1.403       .  A
C2877      H2887   1.083       .  S
C2878      C2883   1.493       .  S
C2878      C2879   1.409       .  A
C2879      C2880   1.398       .  A
C2879      H2884   1.083       .  S
C2880      C2881   1.404       .  A
C2880      H2885   1.083   1_455  S
C2881      C2882   1.409       .  A
C2882      H2886   1.083       .  S
C2883      C2888   1.402       .  A
C2883      C2892   1.411       .  A
C2888      C2889   1.391       .  A
C2888      H2893   1.083       .  S
C2889      C2890   1.408       .  A
C2889      H2894   1.083       .  S
C2890      C2891   1.407       .  A
C2891      C2892   1.409       .  A
C2891      H2895   1.083       .  S
C2892      H2896   1.083       .  S
C2897      C2898   1.410       .  A
C2897      C2902   1.398       .  A
C2897      H2907   1.082       .  S
C2898      C2903   1.496       .  S
C2898      C2899   1.408       .  A
C2899      C2900   1.402       .  A
C2899      H2904   1.082       .  S
C2900      C2901   1.406       .  A
C2900      H2905   1.083       .  S
C2901      C2902   1.403       .  A
C2902      H2906   1.083       .  S
C2903      C2908   1.406       .  A
C2903      C2912   1.411       .  A
C2908      C2909   1.395       .  A
C2908      H2913   1.082       .  S
C2909      C2910   1.405       .  A
C2909      H2914   1.083       .  S
C2910      C2911   1.404       .  A
C2911      C2912   1.405       .  A
C2911      H2915   1.083       .  S
C2912      H2916   1.082       .  S
C2917      C2918   1.403       .  A
C2917      C2922   1.395       .  A
C2917      H2927   1.083   1_455  S
C2918      C2923   1.478   1_455  S
C2918      C2919   1.405       .  A
C2919      C2920   1.398       .  A
C2919      H2924   1.083       .  S
C2920      C2921   1.405       .  A
C2920      H2925   1.083       .  S
C2921      C2922   1.405       .  A
C2922      H2926   1.083       .  S
C2923      C2928   1.404       .  A
C2923      C2932   1.403       .  A
C2928      C2929   1.396       .  A
C2928      H2933   1.083       .  S
C2929      C2930   1.406       .  A
C2929      H2934   1.083       .  S
C2930      C2931   1.407       .  A
C2931      C2932   1.396       .  A
C2931      H2935   1.083       .  S
C2932      H2936   1.083   1_655  S
C2937      C2938   1.399       .  A
C2937      C2942   1.391       .  A
C2937      H2947   1.084       .  S
C2938      C2943   1.480       .  S
C2938      C2939   1.407       .  A
C2939      C2940   1.406       .  A
C2939      H2944   1.083       .  S
C2940      C2941   1.407       .  A
C2940      H2945   1.083       .  S
C2941      C2942   1.410       .  A
C2942      H2946   1.083       .  S
C2943      C2948   1.404       .  A
C2943      C2952   1.403       .  A
C2948      C2949   1.396       .  A
C2948      H2953   1.083       .  S
C2949      C2950   1.405       .  A
C2949      H2954   1.083       .  S
C2950      C2951   1.408       .  A
C2951      C2952   1.401       .  A
C2951      H2955   1.083       .  S
C2952      H2956   1.083       .  S
C2957      C2958   1.405       .  A
C2957      C2962   1.405       .  A
C2957      H2967   1.083       .  S
C2958      C2963   1.485       .  S
C2958      C2959   1.405       .  A
C2959      C2960   1.394       .  A
C2959      H2964   1.083       .  S
C2960      C2961   1.404       .  A
C2960      H2965   1.083       .  S
C2961      C2962   1.410       .  A
C2962      H2966   1.083       .  S
C2963      C2968   1.409       .  A
C2963      C2972   1.399       .  A
C2968      C2969   1.410       .  A
C2968      H2973   1.083       .  S
C2969      C2970   1.408       .  A
C2969      H2974   1.083       .  S
C2970      C2971   1.409       .  A
C2971      C2972   1.388       .  A
C2971      H2975   1.083       .  S
C2972      H2976   1.084       .  S
C2977      C2978   1.402       .  A
C2977      C2982   1.389       .  A
C2977      H2987   1.083       .  S
C2978      C2983   1.490       .  S
C2978      C2979   1.410       .  A
C2979      C2980   1.409       .  A
C2979      H2984   1.082       .  S
C2980      C2981   1.407       .  A
C2980      H2985   1.083       .  S
C2981      C2982   1.407       .  A
C2982      H2986   1.083       .  S
C2983      C2988   1.406       .  A
C2983      C2992   1.407       .  A
C2988      C2989   1.394       .  A
C2988      H2993   1.083       .  S
C2989      C2990   1.404       .  A
C2989      H2994   1.083       .  S
C2990      C2991   1.409       .  A
C2991      C2992   1.404       .  A
C2991      H2995   1.083       .  S
C2992      H2996   1.083       .  S
C2997      C2998   1.409       .  A
C2997      C3002   1.397       .  A
C2997      H3007   1.083       .  S
C2998      C3003   1.490       .  S
C2998      C2999   1.406       .  A
C2999      C3000   1.399       .  A
C2999      H3004   1.082       .  S
C3000      C3001   1.407       .  A
C3000      H3005   1.083       .  S
C3001      C3002   1.402       .  A
C3002      H3006   1.083       .  S
C3003      C3008   1.403       .  A
C3003      C3012   1.411       .  A
C3008      C3009   1.389       .  A
C3008      H3013   1.082       .  S
C3009      C3010   1.405       .  A
C3009      H3014   1.083       .  S
C3010      C3011   1.405       .  A
C3011      C3012   1.405       .  A
C3011      H3015   1.083       .  S
C3012      H3016   1.083       .  S
C3017      C3018   1.405       .  A
C3017      C3022   1.401       .  A
C3017      H3027   1.083       .  S
C3018      C3023   1.491       .  S
C3018      C3019   1.409       .  A
C3019      C3020   1.399       .  A
C3019      H3024   1.083       .  S
C3020      C3021   1.404       .  A
C3020      H3025   1.083   1_545  S
C3021      C3022   1.409       .  A
C3022      H3026   1.083       .  S
C3023      C3028   1.410       .  A
C3023      C3032   1.401       .  A
C3028      C3029   1.408       .  A
C3028      H3033   1.083       .  S
C3029      C3030   1.407       .  A
C3029      H3034   1.083       .  S
C3030      C3031   1.409       .  A
C3031      C3032   1.392       .  A
C3031      H3035   1.083       .  S
C3032      H3036   1.083       .  S
C3037      C3038   1.406       .  A
C3037      C3042   1.400       .  A
C3037      H3047   1.083       .  S
C3038      C3043   1.492       .  S
C3038      C3039   1.408       .  A
C3039      C3040   1.398       .  A
C3039      H3044   1.083       .  S
C3040      C3041   1.404       .  A
C3040      H3045   1.083   1_455  S
C3041      C3042   1.407       .  A
C3042      H3046   1.083       .  S
C3043      C3048   1.409       .  A
C3043      C3052   1.404       .  A
C3048      C3049   1.405       .  A
C3048      H3053   1.083       .  S
C3049      C3050   1.406       .  A
C3049      H3054   1.083       .  S
C3050      C3051   1.407       .  A
C3051      C3052   1.393       .  A
C3051      H3055   1.083       .  S
C3052      H3056   1.083       .  S
