geometry optimzed in LAMMPS
_audit_creation_date              2020-11-30 
_audit_creation_method            'lammps2cif' 
_symmetry_space_group_name_H-M    'P1' 
_symmetry_Int_Tables_number       1 
_symmetry_cell_setting            triclinic 
loop_ 
_symmetry_equiv_pos_as_xyz 
  x,y,z 
_cell_length_a                    43.92606891 
_cell_length_b                    42.615822422323554 
_cell_length_c                    45.04124299877071 
_cell_angle_alpha                 89.56132337720743 
_cell_angle_beta                  88.6305728686008 
_cell_angle_gamma                 118.70847155735558 
loop_ 
_atom_site_label 
_atom_site_type_symbol 
_atom_site_fract_x 
_atom_site_fract_y 
_atom_site_fract_z 
_atom_site_charge 
C1          C  0.13167995  0.46563497  0.12430487     0.80800
N2          N  0.13927389  0.49226391  0.14380800    -0.77500
C3          C  0.12561418  0.01579002  0.14367715     0.83300
N4          N  0.10697532  0.01342632  0.11944247    -0.77400
C5          C  0.10012979  0.48727867  0.09657681     0.83400
N6          N  0.11276056  0.46369744  0.09996625    -0.79100
C7          C  0.23497898  0.21104167  0.20199135     0.80800
N8          N  0.20933791  0.17926115  0.19269227    -0.77500
C9          C  0.20532424  0.14781946  0.20400145     0.83300
N10         N  0.22783432  0.14866118  0.22455365    -0.77400
C11         C  0.25363196  0.18019360  0.23396539     0.83400
N12         N  0.25733535  0.21152791  0.22259423    -0.79100
C13         C  0.08189391  0.17672184  0.11173670     0.80800
N14         N  0.08596148  0.15657814  0.09017881    -0.77500
C15         C  0.05769412  0.12685753  0.08078781     0.83300
N16         N  0.02584876  0.11799937  0.09240164    -0.77400
C17         C  0.02118937  0.13825437  0.11298203     0.83400
N18         N  0.04949320  0.16751509  0.12288926    -0.79100
C19         C  0.32560665  0.03590919  0.17391618     0.80800
N20         N  0.35535763  0.05259831  0.15686587    -0.77500
C21         C  0.38049710  0.08618640  0.16310215     0.83300
N22         N  0.37522326  0.10298784  0.18641616    -0.77400
C23         C  0.34604865  0.08673603  0.20382542     0.83400
N24         N  0.32141780  0.05280214  0.19801562    -0.79100
C25         C  0.02594587  0.28061812  0.17925588     0.80800
N26         N  0.50452019  0.25554191  0.20091278    -0.77500
C27         C  0.47010016  0.24586711  0.20515211     0.83300
N28         N  0.45461395  0.25745442  0.18543107    -0.77400
C29         C  0.47219013  0.27803469  0.16157473     0.83400
N30         N  0.01005664  0.29420434  0.16188091    -0.79100
C31         C  0.37479055  0.37963476  0.10260139     0.80800
N32         N  0.38480056  0.35649084  0.11417313    -0.77500
C33         C  0.41303898  0.35532471  0.10249873     0.83300
N34         N  0.43103694  0.37715936  0.07925914    -0.77400
C35         C  0.42171973  0.40039802  0.06764845     0.83400
N36         N  0.39379738  0.40213662  0.07955872    -0.79100
C37         C  0.19474326  0.37547409  0.14705261     0.02900
C38         C  0.23126452  0.38873584  0.14745226     0.02900
C39         C  0.24457837  0.36425277  0.14889889     0.02900
C40         C  0.22138845  0.32727404  0.15241936     0.02900
C41         C  0.18556925  0.31425468  0.14987990     0.02900
C42         C  0.17204889  0.33817998  0.14942220     0.02900
Zr43       Zr  0.37410866  0.17858574  0.37274842     2.17500
O44         O  0.37251791  0.15998055  0.42450786    -0.50700
O45         O  0.38394697  0.23093819  0.40208396    -0.73900
O46         O  0.42519611  0.17538550  0.38725898    -0.80700
O47         O  0.27373157  0.13219192  0.37209271    -0.82500
O48         O  0.46617393  0.19598621  0.34978475    -0.78100
O49         O  0.31960722  0.13456242  0.39618175    -0.89700
O50         O  0.40396299  0.28057548  0.37250558    -0.75700
O51         O  0.41718073  0.22744397  0.34371857    -0.85200
O52         O  0.34419497  0.20796395  0.35343652    -0.84900
O53         O  0.39462276  0.15178097  0.33562217    -0.71600
O54         O  0.32853436  0.13442324  0.34424825    -0.83700
Zr55       Zr  0.36184729  0.18813095  0.25802991     2.26400
Zr56       Zr  0.43701859  0.20130329  0.30585281     2.06300
Zr57       Zr  0.29881549  0.16390670  0.32458164     2.10000
Zr58       Zr  0.38710608  0.25644019  0.32370947     1.78800
O59         O  0.24341608  0.11081071  0.31674966    -0.92500
O60         O  0.44316635  0.31039210  0.31765923    -0.40400
O61         O  0.34083267  0.21364308  0.29501565    -0.77000
O62         O  0.40842409  0.23251876  0.28589416    -0.95700
O63         O  0.39110045  0.15814505  0.27699917    -0.89000
O64         O  0.31892143  0.13865136  0.28641846    -0.91800
C65         C  0.39580607  0.26479244  0.39791118     1.01900
C66         C  0.28694820  0.12316383  0.39356593     1.14900
C67         C  0.45550970  0.18431038  0.37649227     1.05600
O68         O  0.49274330  0.25547368  0.30862544    -0.94000
O69         O  0.46236194  0.22284314  0.25559670    -0.89700
O70         O  0.41609916  0.21592352  0.22933554    -0.82900
C71         C  0.44860684  0.22622974  0.23168997     1.12300
O72         O  0.34500115  0.06747120  0.34513391    -0.96000
Zr73       Zr  0.34859293  0.10937663  0.30624529     1.88900
O74         O  0.35248996  0.13817734  0.22712104    -0.72600
O75         O  0.46195778  0.16357423  0.29070817    -0.51900
O76         O  0.38576217  0.08304459  0.29427981    -0.96500
O77         O  0.29005408  0.05866836  0.30992828    -0.53800
O78         O  0.33885081  0.08869646  0.25558407    -0.73100
C79         C  0.34446093  0.10519683  0.23050988     0.99200
O80         O  0.35854212  0.21998330  0.21412646    -0.61900
O81         O  0.27062118  0.19652284  0.34502092    -0.56700
O82         O  0.30860027  0.18598183  0.24164674    -0.93400
O83         O  0.27087428  0.17211754  0.28132316    -0.91800
O84         O  0.34758717  0.27971098  0.33625175    -0.92200
O85         O  0.38883478  0.29695446  0.28445167    -0.91000
C86         C  0.27944241  0.17982855  0.25370323     1.18100
H87         H  0.33424374  0.21614739  0.36889229     0.34000
H88         H  0.42428932  0.25263775  0.27351680     0.44900
H89         H  0.30007257  0.12281578  0.27422164     0.38400
H90         H  0.40484688  0.13840323  0.34428876     0.34900
H91         H  0.43968822  0.32954187  0.32680636     0.26700
H92         H  0.48736245  0.17969690  0.29042663     0.32600
H93         H  0.40090201  0.09773571  0.27740723     0.38500
H94         H  0.36258418  0.30377934  0.34415183     0.33000
H95         H  0.28083146  0.21922282  0.33329941     0.31800
H96         H  0.22584460  0.11603978  0.32626871     0.33500
H97         H  0.28161053  0.05478074  0.28939739     0.32500
H98         H  0.38295772  0.28254161  0.26626166     0.36500
H99         H  0.37872343  0.24432590  0.21469692     0.29200
H100        H  0.39385391  0.17865778  0.43346951     0.33500
H101        H  0.33854611  0.04464753  0.33505243     0.36300
H102        H  0.24635772  0.18318308  0.33851193     0.28900
H103        H  0.36357664  0.20833093  0.19720479     0.41800
H104        H  0.48795557  0.27501886  0.30256292     0.31800
H105        H  0.45856855  0.30673333  0.33131993     0.39500
H106        H  0.27609089  0.06801043  0.32037699     0.31300
H107        H  0.45744729  0.14706443  0.30784358     0.31400
H108        H  0.37546375  0.13834747  0.42400695     0.31600
C109        C  0.35870729  0.45619775  0.51318588     0.80800
N110        N  0.34439246  0.47326460  0.49789212    -0.77500
C111        C  0.31230695  0.46821275  0.50551809     0.83300
N112        N  0.29449011  0.44523206  0.52819851    -0.77400
C113        C  0.30824267  0.42795122  0.54386284     0.83400
N114        N  0.34092007  0.43395360  0.53677245    -0.79100
C115        C  0.21371677  0.06937330  0.44717285     0.79600
N116        N  0.22541663  0.04806833  0.45943883    -0.77500
C117        C  0.25603832  0.05032177  0.45009096     0.83300
N118        N  0.27536437  0.07492058  0.42871925    -0.77400
C119        C  0.26413720  0.09643062  0.41610209     0.83400
N120        N  0.23292859  0.09329820  0.42502258    -0.79100
C121        C  0.15949084  0.20244431  0.51112482     0.80800
N122        N  0.19039730  0.21660933  0.49570470    -0.77500
C123        C  0.21697027  0.24913766  0.50254407     0.83300
N124        N  0.21187891  0.26764622  0.52463497    -0.77400
C125        C  0.18151496  0.25395867  0.54049977     0.83400
N126        N  0.15541741  0.22075119  0.53429312    -0.79100
C127        C  0.41671272  0.33849296  0.45112075     0.80800
N128        N  0.42138383  0.31826911  0.42987219    -0.77500
C129        C  0.39439903  0.28570402  0.42312127     0.83300
N130        N  0.36283484  0.27465311  0.43630534    -0.77400
C131        C  0.35727659  0.29506589  0.45621965     0.83400
N132        N  0.38448682  0.32680824  0.46372181    -0.79100
C133        C  0.08284598  0.39144902  0.53120742     0.80800
N134        N  0.09789319  0.38945124  0.55681944    -0.77500
C135        C  0.09737185  0.35812360  0.56449215     0.83300
N136        N  0.08319156  0.32996530  0.54613800    -0.77400
C137        C  0.06830556  0.33198695  0.52081565     0.83400
N138        N  0.06822789  0.36267224  0.51360754    -0.79100
C139        C  0.49470619  0.15244368  0.43273026     0.80800
N140        N  0.01434127  0.18450256  0.44899682    -0.77500
C141        C  0.51260446  0.21355477  0.43909621     0.83300
N142        N  0.49645903  0.21400689  0.41407029    -0.77400
C143        C  0.47972892  0.18411209  0.39792855     0.83400
N144        N  0.47807396  0.15278644  0.40757785    -0.79100
C145        C  0.06013512  0.05719135  0.48217051     0.02900
C146        C  0.02398550  0.04366855  0.47929830     0.02900
C147        C  0.50139088  0.00733479  0.48197319     0.02900
C148        C  0.01699882  0.48403636  0.48152056     0.02900
C149        C  0.05301975  0.49840813  0.48519313     0.02900
C150        C  0.07371036  0.03333362  0.48406279     0.02900
C151        C  0.33434467  0.32586771  0.76639918     0.80800
N152        N  0.31228376  0.32549413  0.74546448    -0.77500
C153        C  0.31664251  0.35689778  0.73347989     0.83300
N154        N  0.34282268  0.38833465  0.74252153    -0.77400
C155        C  0.36492336  0.38913169  0.76341533     0.83400
N156        N  0.36028145  0.35769471  0.77536711    -0.79100
C157        C  0.44035743  0.07127513  0.83906432     0.80800
N158        N  0.45838436  0.07312834  0.86394924    -0.77500
C159        C  0.47061039  0.04937256  0.86817034     0.83300
N160        N  0.46324367  0.02307289  0.84824923    -0.77400
C161        C  0.44430688  0.02027627  0.82407848     0.83400
N162        N  0.43327156  0.04460197  0.81972508    -0.79100
C163        C  0.24304216  0.00150857  0.79151241     0.80800
N164        N  0.21252778  0.48632784  0.80663759    -0.77500
C165        C  0.18695139  0.45307057  0.80020103     0.83300
N166        N  0.19256316  0.43545634  0.77761098    -0.77400
C167        C  0.22262060  0.45081905  0.76114164     0.83400
N168        N  0.24759924  0.48457236  0.76714900    -0.79100
C169        C  0.48677593  0.36227055  0.85126867     0.80800
N170        N  0.01987068  0.37141038  0.84135696    -0.77500
C171        C  0.04757058  0.40093392  0.85154288     0.83300
N172        N  0.04203050  0.41975398  0.87301883    -0.77400
C173        C  0.00987159  0.40945257  0.88484559     0.83400
N174        N  0.48158697  0.38123672  0.87330857    -0.79100
C175        C  0.19474558  0.14712069  0.86299325     0.80800
N176        N  0.17662484  0.12665760  0.88727296    -0.77500
C177        C  0.14820714  0.12844457  0.89796288     0.83300
N178        N  0.13774594  0.14960418  0.88405251    -0.77400
C179        C  0.15511416  0.16961164  0.85980772     0.83400
N180        N  0.18361768  0.16816793  0.84937627    -0.79100
C181        C  0.04528219  0.24746910  0.78128341     0.80800
N182        N  0.06087566  0.23360784  0.79880991    -0.77500
C183        C  0.09411810  0.24109643  0.79320779     0.83300
N184        N  0.11179448  0.26297778  0.77005407    -0.77400
C185        C  0.09711193  0.27703203  0.75196100     0.83400
N186        N  0.06333622  0.26904142  0.75728405    -0.79100
C187        C  0.35102724  0.20986089  0.81331006     0.02900
C188        C  0.32821184  0.17284262  0.81677135     0.02900
C189        C  0.34152743  0.14844035  0.81594801     0.02900
C190        C  0.37785316  0.16142494  0.81421702     0.02900
C191        C  0.40042168  0.19862278  0.81145017     0.02900
C192        C  0.38705148  0.22266341  0.81328682     0.02900
Zr193      Zr  0.02213617  0.01238314  0.04217130     2.17500
O194        O  0.50101560  0.02076820  0.09046378    -0.50700
O195        O  0.06053700  0.00068228  0.07394464    -0.73900
O196        O  0.46617411  0.45824564  0.05687023    -0.80700
O197        O  0.08283250  0.11481348  0.03776176    -0.82500
O198        O  0.44846851  0.41758531  0.01997553    -0.78100
O199        O  0.03604463  0.06994775  0.06210176    -0.89700
O200        O  0.09320956  0.98260518  0.04687820    -0.75700
O201        O  0.02721371  0.46720250  0.01502919    -0.85200
O202        O  0.08015529  0.04109818  0.02252501    -0.84900
O203        O  0.47578270  0.49209161  0.00345378    -0.71600
O204        O  0.02701016  0.06059000  0.01094387    -0.83700
Zr205      Zr  0.04726341  0.02352529  0.92673327     2.26400
Zr206      Zr  0.48364246  0.44832414  0.97578060     2.06300
Zr207      Zr  0.08491692  0.08833694  0.99024708     2.10000
Zr208      Zr  0.08512910  0.99569069  0.99604567     1.78800
O209        O  0.08614294  0.14507862  0.97974127    -0.92500
O210        O  0.07820651  0.43697566  0.99095901    -0.40400
O211        O  0.09101541  0.04329596  0.96353817    -0.77000
O212        O  0.04288746  0.47571190  0.95736298    -0.95700
O213        O  0.98842522  0.49455170  0.94476411    -0.89000
O214        O  0.04222142  0.06939599  0.95259949    -0.91800
C215        C  0.08302652  0.98954840  0.07159922     1.01900
C216        C  0.05984123  0.10263269  0.05905147     1.14900
C217        C  0.44620444  0.42733109  0.04647697     1.05600
O218        O  0.97696557  0.38769087  0.98376374    -0.94000
O219        O  0.48538697  0.42195346  0.92775850    -0.89700
O220        O  0.02814916  0.46623416  0.90218569    -0.82900
C221        C  0.00665299  0.43303868  0.90670116     1.12300
O222        O  0.44874142  0.05152455  0.00866769    -0.96000
Zr223      Zr  0.48579859  0.04382809  0.97149563     1.88900
O224        O  0.00899115  0.03543943  0.89528309    -0.72600
O225        O  0.42441048  0.42555672  0.95939794    -0.51900
O226        O  0.41992814  0.50087216  0.96426416    -0.96500
O227        O  0.49615178  0.10544234  0.97098814    -0.53800
O228        O  0.47706433  0.05492697  0.92027005    -0.73100
C229        C  0.48786611  0.04830776  0.89568907     0.99200
O230        O  0.07366012  0.03003778  0.87715434    -0.61900
O231        O  0.14439987  0.11581872  0.00692083    -0.56700
O232        O  0.10360400  0.07180664  0.91096319    -0.93400
O233        O  0.12142729  0.11500666  0.94572961    -0.91800
O234        O  0.14618379  0.03523377  0.00528803    -0.92200
O235        O  0.12217587  0.98874717  0.95850511    -0.91000
C236        C  0.12401036  0.10316180  0.92018031     1.18100
H237        H  0.09710450  0.05103092  0.03778342     0.34000
H238        H  0.04820836  0.45878226  0.94766693     0.44900
H239        H  0.04643910  0.08917705  0.93921129     0.38400
H240        H  0.45260871  0.48164098  0.01218615     0.34900
H241        H  0.10078063  0.43938039  0.99688548     0.26700
H242        H  0.41287563  0.39965243  0.96442650     0.32600
H243        H  0.41171147  0.51609067  0.95431294     0.38500
H244        H  0.15497595  0.01921445  0.01262521     0.33000
H245        H  0.15538216  0.10411172  0.99527552     0.31800
H246        H  0.11012264  0.16353231  0.98395231     0.33500
H247        H  0.50946314  0.11635381  0.95224586     0.32500
H248        H  0.12067573  0.50647677  0.93859164     0.36500
H249        H  0.08451660  0.01435752  0.87712340     0.29200
H250        H  0.49844948  0.00016881  0.10267092     0.33500
H251        H  0.43643667  0.06216986  0.99784173     0.36300
H252        H  0.15539231  0.14063942  0.99880465     0.28900
H253        H  0.05059402  0.51632138  0.86192358     0.41800
H254        H  0.99991217  0.39156658  0.99010699     0.31800
H255        H  0.06189365  0.42320133  0.00754723     0.39500
H256        H  0.00969285  0.11527393  0.98657223     0.31300
H257        H  0.41371339  0.43540037  0.97350655     0.31400
H258        H  0.47703648  0.01660196  0.08782703     0.31600
Zr259      Zr  0.20888801  0.34917929  0.70748165     2.17500
O260        O  0.20411970  0.32454409  0.75759433    -0.50700
O261        O  0.21690936  0.39903787  0.73839975    -0.73900
O262        O  0.26068641  0.34736367  0.72366797    -0.80700
O263        O  0.10717236  0.30894601  0.70516499    -0.82500
O264        O  0.30198849  0.36969215  0.68646700    -0.78100
O265        O  0.15212244  0.31023541  0.73003001    -0.89700
O266        O  0.23156072  0.44850460  0.70966855    -0.75700
O267        O  0.25292890  0.39836236  0.67933441    -0.85200
O268        O  0.17996701  0.37923200  0.68744062    -0.84900
O269        O  0.23001638  0.32271228  0.67094781    -0.71600
O270        O  0.16311218  0.30618985  0.67851584    -0.83700
Zr271      Zr  0.20016498  0.35899260  0.59238733     2.26400
Zr272      Zr  0.27323078  0.37232674  0.64151247     2.06300
Zr273      Zr  0.13511067  0.33695302  0.65723828     2.10000
Zr274      Zr  0.22360994  0.42790378  0.65893700     1.78800
O275        O  0.08066310  0.28300615  0.64873522    -0.92500
O276        O  0.28229117  0.47841025  0.65768392    -0.40400
O277        O  0.17887280  0.38594178  0.62815115    -0.77000
O278        O  0.24503877  0.40361575  0.62161421    -0.95700
O279        O  0.22812464  0.32826677  0.61241708    -0.89000
O280        O  0.15551295  0.31046341  0.62023563    -0.91800
C281        C  0.22504948  0.43205228  0.73484280     1.01900
C282        C  0.11972720  0.30057862  0.72748754     1.14900
C283        C  0.29147434  0.35765675  0.71309346     1.05600
O284        O  0.33153934  0.42310399  0.64281568    -0.94000
O285        O  0.29940754  0.39851677  0.59191864    -0.89700
O286        O  0.25392100  0.39245095  0.56498414    -0.82900
C287        C  0.28634241  0.40392763  0.56829162     1.12300
O288        O  0.17522882  0.23818921  0.68199853    -0.96000
Zr289      Zr  0.18373636  0.28043532  0.64173694     1.88900
O290        O  0.19087085  0.30747592  0.56277837    -0.72600
O291        O  0.29628528  0.33248934  0.62774624    -0.51900
O292        O  0.22172716  0.25401460  0.63493927    -0.96500
O293        O  0.12543189  0.22937997  0.64573864    -0.53800
O294        O  0.17212105  0.25754133  0.59182000    -0.73100
C295        C  0.18016135  0.27384267  0.56654749     0.99200
O296        O  0.20574317  0.38605592  0.54309813    -0.61900
O297        O  0.10870011  0.37229709  0.67534406    -0.56700
O298        O  0.14931137  0.36107659  0.57619916    -0.93400
O299        O  0.10960869  0.34879291  0.61386152    -0.91800
O300        O  0.18560088  0.45436892  0.66532644    -0.92200
O301        O  0.23073118  0.47208912  0.62090898    -0.91000
C302        C  0.12030970  0.35687189  0.58669249     1.18100
H303        H  0.16951143  0.38706637  0.70269230     0.34000
H304        H  0.26109677  0.42451790  0.61010473     0.44900
H305        H  0.13697180  0.29498367  0.60763383     0.38400
H306        H  0.24029127  0.30963356  0.68008704     0.34900
H307        H  0.27940171  0.49914012  0.66373804     0.26700
H308        H  0.32176216  0.34818234  0.62643218     0.32600
H309        H  0.20583975  0.22816814  0.63241277     0.38500
H310        H  0.17326510  0.44483132  0.68468891     0.33000
H311        H  0.11603783  0.39211850  0.66055970     0.31800
H312        H  0.06264722  0.29056341  0.65076041     0.33500
H313        H  0.12781438  0.20909832  0.63764885     0.32500
H314        H  0.22039083  0.45792597  0.60302910     0.36500
H315        H  0.18670208  0.36812208  0.53126475     0.29200
H316        H  0.22333359  0.34321619  0.76878640     0.33500
H317        H  0.18693827  0.25328418  0.69910186     0.36300
H318        H  0.08353655  0.35707870  0.67236729     0.28900
H319        H  0.20046828  0.40603496  0.54565527     0.41800
H320        H  0.32881602  0.44115371  0.65461000     0.31800
H321        H  0.29375403  0.47393673  0.67462046     0.39500
H322        H  0.11191836  0.23421660  0.63084273     0.31300
H323        H  0.29234587  0.31724448  0.64566630     0.31400
H324        H  0.20975792  0.30475405  0.75569341     0.31600
C325        C  0.99787808  0.23539604  0.81908323     0.24200
C326        C  0.00879294  0.23813721  0.78895048    -0.23900
C327        C  0.48261744  0.22770382  0.76449842     0.19100
C328        C  0.44776735  0.21551106  0.77289172     0.24200
C329        C  0.43757026  0.21245166  0.80308543    -0.23800
C330        C  0.46265499  0.22291221  0.82477857     0.19100
F331        F  0.45328393  0.22075062  0.85397222    -0.13800
F332        F  0.02125035  0.24511563  0.84096854    -0.16200
F333        F  0.42371210  0.20598481  0.75158539    -0.16200
F334        F  0.49138811  0.22811973  0.73533647    -0.13800
C335        C  0.28539153  0.15802051  0.85884093     0.24200
C336        C  0.29222385  0.16101750  0.82796480    -0.23900
C337        C  0.26577426  0.15604401  0.80871175     0.19100
C338        C  0.23323923  0.14933933  0.82020649     0.24200
C339        C  0.22668703  0.14753742  0.85116306    -0.23800
C340        C  0.25274823  0.15085561  0.87036751     0.19100
F341        F  0.24749183  0.14975464  0.90027479    -0.13800
F342        F  0.31106722  0.16399953  0.87787164    -0.16200
F343        F  0.20823986  0.14524916  0.80106592    -0.16200
F344        F  0.27186645  0.15905085  0.77888089    -0.13800
C345        C  0.09606883  0.20770025  0.83866530     0.24200
C346        C  0.11086640  0.22472320  0.81119508    -0.23900
C347        C  0.14163179  0.22521517  0.80063512     0.19100
C348        C  0.15638870  0.20800929  0.81656697     0.24200
C349        C  0.14121861  0.19038115  0.84382712    -0.23800
C350        C  0.11128382  0.19124329  0.85496569     0.19100
F351        F  0.09610540  0.17578418  0.88158431    -0.13800
F352        F  0.06664455  0.20665940  0.84993594    -0.16200
F353        F  0.18508482  0.20800904  0.80465074    -0.16200
F354        F  0.15706411  0.24118862  0.77422930    -0.13800
C355        C  0.43553395  0.30249011  0.86161865     0.24200
C356        C  0.45814784  0.32850134  0.84093615    -0.23900
C357        C  0.45565255  0.32042167  0.81049099     0.19100
C358        C  0.43150833  0.28644311  0.80102885     0.24200
C359        C  0.41012583  0.26003768  0.82193154    -0.23800
C360        C  0.41194923  0.26841120  0.85220068     0.19100
F361        F  0.39169305  0.24298288  0.87278854    -0.13800
F362        F  0.43794848  0.30924245  0.89113004    -0.16200
F363        F  0.42959694  0.27900414  0.77167861    -0.16200
F364        F  0.47698257  0.34529705  0.78998911    -0.13800
C365        C  0.28877897  0.06284142  0.77484722     0.24200
C366        C  0.27010112  0.03835592  0.79809801    -0.23900
C367        C  0.27619940  0.05000468  0.82765095     0.19100
C368        C  0.29985371  0.08563757  0.83374639     0.24200
C369        C  0.31767487  0.11013267  0.81043322    -0.23800
C370        C  0.31221044  0.09842220  0.78099078     0.19100
F371        F  0.32905221  0.12182333  0.75808787    -0.13800
F372        F  0.28323947  0.05279255  0.74608388    -0.16200
F373        F  0.30520321  0.09625500  0.86233719    -0.16200
F374        F  0.25954165  0.02676154  0.85066483    -0.13800
C375        C  0.14519369  0.45718051  0.83735518     0.24200
C376        C  0.15190796  0.43792993  0.81520797    -0.23900
C377        C  0.12400349  0.40528463  0.80612642     0.19100
C378        C  0.09037159  0.39304004  0.81806156     0.24200
C379        C  0.08351541  0.41301484  0.83943511    -0.23800
C380        C  0.11163289  0.44504180  0.84916352     0.19100
F381        F  0.10695263  0.46540115  0.86991400    -0.13800
F382        F  0.17092594  0.48837362  0.84749188    -0.16200
F383        F  0.06456683  0.36166091  0.80827183    -0.16200
F384        F  0.12878609  0.38518284  0.78517942    -0.13800
C385        C  0.41218190  0.10784349  0.85621617     0.24200
C386        C  0.42606990  0.09604649  0.83313295    -0.23900
C387        C  0.42311528  0.10524508  0.80351979     0.19100
C388        C  0.40640708  0.12533252  0.79717195     0.24200
C389        C  0.39266954  0.13709834  0.82023521    -0.23800
C390        C  0.39564079  0.12816200  0.84978474     0.19100
F391        F  0.38251418  0.13928645  0.87247050    -0.13800
F392        F  0.41349474  0.09868504  0.88490150    -0.16200
F393        F  0.40359970  0.13323514  0.76846796    -0.16200
F394        F  0.43676681  0.09505200  0.78057565    -0.13800
C395        C  0.33148708  0.26621371  0.76020938     0.24200
C396        C  0.33130378  0.29224918  0.77902861    -0.23900
C397        C  0.33234525  0.28786299  0.80995990     0.19100
C398        C  0.33563733  0.25910139  0.82173398     0.24200
C399        C  0.33852282  0.23468930  0.80270045    -0.23800
C400        C  0.33547210  0.23791855  0.77193841     0.19100
F401        F  0.33881826  0.21496794  0.75306784    -0.13800
F402        F  0.33063672  0.26973556  0.73029816    -0.16200
F403        F  0.33778703  0.25613375  0.85152120    -0.16200
F404        F  0.33100097  0.31198082  0.82871102    -0.13800
C405        C  0.43104538  0.45766582  0.81399794     0.24200
C406        C  0.43173719  0.48938296  0.80383675    -0.23900
C407        C  0.41612877  0.48887426  0.77679875     0.19100
C408        C  0.39618750  0.45662803  0.76257602     0.24200
C409        C  0.39164093  0.42403672  0.77491732    -0.23800
C410        C  0.41116470  0.42536831  0.79976235     0.19100
F411        F  0.40978136  0.39523801  0.81146672    -0.13800
F412        F  0.44766129  0.45711567  0.83887682    -0.16200
F413        F  0.38029617  0.45747511  0.73732447    -0.16200
F414        F  0.41892887  0.51943442  0.76460404    -0.13800
C415        C  0.99776621  0.09577407  0.42685849     0.24200
C416        C  0.49450718  0.11994401  0.44488323    -0.23900
C417        C  0.49736327  0.11674260  0.47587979     0.19100
C418        C  0.50533132  0.09118038  0.48746619     0.24200
C419        C  0.01090259  0.06785061  0.46860911    -0.23800
C420        C  0.00488443  0.06930736  0.43815983     0.19100
F421        F  0.00810786  0.04648117  0.41908938    -0.13800
F422        F  0.99420016  0.09793044  0.39716312    -0.16200
F423        F  0.51011855  0.09015862  0.51705454    -0.16200
F424        F  0.49383342  0.13939277  0.49497410    -0.13800
C425        C  0.06551091  0.46976520  0.52815229     0.24200
C426        C  0.06638352  0.47524053  0.49720445    -0.23900
C427        C  0.07834773  0.45747638  0.47826669     0.19100
C428        C  0.08654427  0.43215622  0.48989552     0.24200
C429        C  0.08299717  0.42436040  0.52071629    -0.23800
C430        C  0.07396998  0.44453729  0.53992108     0.19100
F431        F  0.07067787  0.43790877  0.56968518    -0.13800
F432        F  0.05500299  0.48782723  0.54681509    -0.16200
F433        F  0.09648697  0.41399119  0.47082786    -0.16200
F434        F  0.08071976  0.46357646  0.44847519    -0.13800
C435        C  0.02830404  0.29761467  0.48077682     0.24200
C436        C  0.05497088  0.30239428  0.49991002    -0.23900
C437        C  0.06936329  0.27925616  0.49828302     0.19100
C438        C  0.05661137  0.25117933  0.47849022     0.24200
C439        C  0.02979130  0.24623618  0.45944391    -0.23800
C440        C  0.01581963  0.26979913  0.46072155     0.19100
F441        F  0.48955429  0.26594599  0.44009964    -0.13800
F442        F  0.01339563  0.31909861  0.48212544    -0.16200
F443        F  0.07054169  0.22879345  0.47809000    -0.16200
F444        F  0.09626888  0.28412473  0.51540624    -0.13800
C445        C  0.47116202  0.39688039  0.43902818     0.24200
C446        C  0.44552934  0.37391151  0.45986534    -0.23900
C447        C  0.44611152  0.38619381  0.48901439     0.19100
C448        C  0.47076188  0.42088960  0.49676932     0.24200
C449        C  0.49484735  0.44445448  0.47542856    -0.23800
C450        C  0.49544370  0.43181070  0.44673823     0.19100
F451        F  0.01738751  0.45611289  0.42480911    -0.13800
F452        F  0.47125910  0.38653196  0.41060868    -0.16200
F453        F  0.47036286  0.43185637  0.52490522    -0.16200
F454        F  0.42233082  0.36477405  0.51001759    -0.13800
C455        C  0.11603881  0.13962225  0.52617028     0.24200
C456        C  0.13174582  0.16619742  0.50380486    -0.23900
C457        C  0.12266718  0.15708099  0.47405829     0.19100
C458        C  0.09831860  0.12200449  0.46684958     0.24200
C459        C  0.08326650  0.09539655  0.48918783    -0.23800
C460        C  0.09223403  0.10451534  0.51888947     0.19100
F461        F  0.07852020  0.07900084  0.54080292    -0.13800
F462        F  0.12526819  0.14715983  0.55486474    -0.16200
F463        F  0.09022710  0.11375620  0.43805500    -0.16200
F464        F  0.13760926  0.18214534  0.45195076    -0.13800
C465        C  0.28109905  0.29328719  0.49977995     0.24200
C466        C  0.25245361  0.26245882  0.48890850    -0.23900
C467        C  0.25872095  0.24327811  0.46643593     0.19100
C468        C  0.29252941  0.25379045  0.45593298     0.24200
C469        C  0.32127649  0.28385846  0.46760672    -0.23800
C470        C  0.31491858  0.30363498  0.48944382     0.19100
F471        F  0.34139536  0.33297406  0.50129400    -0.13800
F472        F  0.27683796  0.31349374  0.52093778    -0.16200
F473        F  0.29673774  0.23425654  0.43411266    -0.16200
F474        F  0.23222057  0.21404965  0.45447350    -0.13800
C475        C  0.13565416  0.05139692  0.49681949     0.24200
C476        C  0.11085866  0.04629644  0.47566194    -0.23900
C477        C  0.12093744  0.05202608  0.44537505     0.19100
C478        C  0.15492896  0.06136314  0.43620376     0.24200
C479        C  0.17942640  0.06481230  0.45716128    -0.23800
C480        C  0.16972680  0.06052392  0.48763274     0.19100
F481        F  0.19328153  0.06516360  0.50847210    -0.13800
F482        F  0.12670610  0.04693223  0.52620407    -0.16200
F483        F  0.16329563  0.06486831  0.40670680    -0.16200
F484        F  0.09723996  0.04688396  0.42452472    -0.13800
C485        C  0.43892244  0.47597704  0.46688350     0.24200
C486        C  0.46476335  0.49210922  0.48782595    -0.23900
C487        C  0.45396032  0.99467118  0.51915072     0.19100
C488        C  0.41883852  0.97968164  0.52762006     0.24200
C489        C  0.39454575  0.46470970  0.50523199    -0.23800
C490        C  0.40394676  0.46243577  0.47553081     0.19100
F491        F  0.37919962  0.44740898  0.45490931    -0.13800
F492        F  0.44763946  0.47394821  0.43812700    -0.16200
F493        F  0.40993457  0.98273091  0.55610353    -0.16200
F494        F  0.47837454  0.01001956  0.54001183    -0.13800
C495        C  0.29302768  0.01966056  0.44789670     0.24200
C496        C  0.26845213  0.02647544  0.46324235    -0.23900
C497        C  0.25600781  0.01038363  0.49148984     0.19100
C498        C  0.27272281  0.49563290  0.50614260     0.24200
C499        C  0.29781483  0.48947927  0.49099948    -0.23800
C500        C  0.30586828  0.99863824  0.46106093     0.19100
F501        F  0.32912579  0.99232514  0.44542721    -0.13800
F502        F  0.30419109  0.03263639  0.41982909    -0.16200
F503        F  0.26103405  0.48209759  0.53399394    -0.16200
F504        F  0.23206736  0.01565918  0.50707264    -0.13800
C505        C  0.32047864  0.38428389  0.09662762     0.24200
C506        C  0.34366483  0.38043210  0.11535060    -0.23900
C507        C  0.33578600  0.37537734  0.14614176     0.19100
C508        C  0.30489084  0.37324060  0.15777470     0.24200
C509        C  0.28090854  0.37517737  0.13876054    -0.23800
C510        C  0.28925623  0.38116690  0.10816212     0.19100
F511        F  0.26587983  0.38132697  0.08906303    -0.13800
F512        F  0.32678704  0.38843721  0.06680872    -0.16200
F513        F  0.29784175  0.36796809  0.18743932    -0.16200
F514        F  0.35785196  0.37215112  0.16497701    -0.13800
C515        C  0.07442836  0.29569469  0.14196603     0.24200
C516        C  0.06292676  0.29189035  0.17202122    -0.23900
C517        C  0.08764419  0.30350739  0.19425303     0.19100
C518        C  0.12308713  0.31913159  0.18657612     0.24200
C519        C  0.13445735  0.32383647  0.15660731    -0.23800
C520        C  0.10991070  0.31170097  0.13434507     0.19100
F521        F  0.12032159  0.31507423  0.10532721    -0.13800
F522        F  0.05118325  0.28374793  0.11991983    -0.16200
F523        F  0.14653192  0.32950576  0.20844118    -0.16200
F524        F  0.07765364  0.30116708  0.22329035    -0.13800
C525        C  0.42028043  0.28055134  0.14215717     0.24200
C526        C  0.45661504  0.29557096  0.14377238    -0.23900
C527        C  0.47803289  0.32959103  0.13084409     0.19100
C528        C  0.46352424  0.34878813  0.11788574     0.24200
C529        C  0.42726254  0.33417326  0.11673916    -0.23800
C530        C  0.40567544  0.29980443  0.12885699     0.19100
F531        F  0.37060779  0.28470407  0.12749185    -0.13800
F532        F  0.39893303  0.24710232  0.15314446    -0.16200
F533        F  0.48520462  0.38262538  0.10771577    -0.16200
F534        F  0.01711106  0.35395237  0.13811102    -0.13800
C535        C  0.28332478  0.47361598  0.19019446     0.24200
C536        C  0.29984173  0.49962219  0.16745979    -0.23900
C537        C  0.29317120  0.48893556  0.13763588     0.19100
C538        C  0.27069111  0.45308413  0.13079603     0.24200
C539        C  0.25472404  0.42719304  0.15361266    -0.23800
C540        C  0.26121277  0.43780468  0.18330333     0.19100
F541        F  0.24643257  0.41312276  0.20572392    -0.13800
F542        F  0.28983640  0.48248751  0.21910823    -0.16200
F543        F  0.26486189  0.44368304  0.10194444    -0.16200
F544        F  0.30823941  0.51331223  0.11504534    -0.13800
C545        C  0.11407362  0.21764277  0.15284708     0.24200
C546        C  0.11202922  0.20920032  0.12251434    -0.23900
C547        C  0.13753154  0.23346115  0.10235772     0.19100
C548        C  0.16242786  0.26701574  0.11185624     0.24200
C549        C  0.16293996  0.27639075  0.14177345    -0.23800
C550        C  0.13975627  0.25084457  0.16248308     0.19100
F551        F  0.14135694  0.25845000  0.19178117    -0.13800
F552        F  0.09095859  0.19382087  0.17307842    -0.16200
F553        F  0.18509807  0.29115699  0.09154827    -0.16200
F554        F  0.13696887  0.22571102  0.07312335    -0.13800
C555        C  0.45480977  0.09814952  0.11114332     0.24200
C556        C  0.48348062  0.12798475  0.12323127    -0.23900
C557        C  0.47705272  0.14629510  0.14632258     0.19100
C558        C  0.44342121  0.13383875  0.15822990     0.24200
C559        C  0.41514973  0.10258620  0.14743095    -0.23800
C560        C  0.42122346  0.08583882  0.12294659     0.19100
F561        F  0.39474815  0.05718514  0.11032856    -0.13800
F562        F  0.45891167  0.08022000  0.08793274    -0.16200
F563        F  0.43901786  0.15224672  0.18089609    -0.16200
F564        F  0.00699350  0.16674340  0.16597251    -0.13800
C565        C  0.23515390  0.26923283  0.20796592     0.24200
C566        C  0.23816824  0.24451637  0.18940580    -0.23900
C567        C  0.24070871  0.25020708  0.15843089     0.19100
C568        C  0.23835693  0.27917975  0.14608824     0.24200
C569        C  0.23286518  0.30239390  0.16457483    -0.23800
C570        C  0.23242172  0.29794775  0.19560783     0.19100
F571        F  0.22752378  0.32046412  0.21387619    -0.13800
F572        F  0.23217834  0.26402831  0.23791220    -0.16200
F573        F  0.23977164  0.28361643  0.11614543    -0.16200
F574        F  0.24453581  0.22709122  0.14014694    -0.13800
C575        C  0.16724982  0.41206901  0.16475061     0.24200
C576        C  0.17986057  0.39976355  0.14127178    -0.23900
C577        C  0.17531189  0.40784079  0.11187691     0.19100
C578        C  0.15870439  0.42828545  0.10605513     0.24200
C579        C  0.14622812  0.44092233  0.12960251    -0.23800
C580        C  0.15066172  0.43241039  0.15904606     0.19100
F581        F  0.13856505  0.44349572  0.18250228    -0.13800
F582        F  0.17070798  0.40406803  0.19326957    -0.16200
F583        F  0.15594558  0.43672537  0.07748294    -0.16200
F584        F  0.18683534  0.39567485  0.08877524    -0.13800
C585        C  0.13952134  0.07954928  0.15279601     0.24200
C586        C  0.13858329  0.04767219  0.16288972    -0.23900
C587        C  0.15458980  0.04819170  0.18973465     0.19100
C588        C  0.17457874  0.08037286  0.20404981     0.24200
C589        C  0.17890616  0.11299258  0.19204848    -0.23800
C590        C  0.15948043  0.11180474  0.16714040     0.19100
F591        F  0.16109870  0.14204719  0.15542707    -0.13800
F592        F  0.12306731  0.08029466  0.12786897    -0.16200
F593        F  0.19077943  0.07945325  0.22907933    -0.16200
F594        F  0.15212505  0.01769556  0.20171397    -0.13800
C595        C  0.13065053  0.96561614  0.12761217     0.80800
N596        N  0.13707207  0.99166494  0.14753199    -0.77500
C597        C  0.12786205  0.51635812  0.14013895     0.83300
N598        N  0.10803826  0.51344852  0.11664013    -0.77400
C599        C  0.10026680  0.98789729  0.09895826     0.83400
N600        N  0.11282100  0.96431476  0.10269037    -0.79100
C601        C  0.23817934  0.71126727  0.19941203     0.80800
N602        N  0.21350372  0.67955677  0.18924683    -0.77500
C603        C  0.20964762  0.64805267  0.20018892     0.83300
N604        N  0.23130197  0.64860826  0.22145013    -0.77400
C605        C  0.25598807  0.68013937  0.23197743     0.83400
N606        N  0.25955688  0.71156758  0.22088429    -0.79100
C607        C  0.07977918  0.67740202  0.11088329     0.80800
N608        N  0.08372839  0.65784649  0.08864083    -0.77500
C609        C  0.05573481  0.62712325  0.08017597     0.83300
N610        N  0.02436070  0.61675826  0.09343972    -0.77400
C611        C  0.01974271  0.63611356  0.11489769     0.83400
N612        N  0.04771855  0.66645913  0.12376811    -0.79100
C613        C  0.32573064  0.53707860  0.17457109     0.80800
N614        N  0.35561364  0.55407108  0.15769896    -0.77500
C615        C  0.38032532  0.58782471  0.16397134     0.83300
N616        N  0.37452637  0.60470759  0.18691707    -0.77400
C617        C  0.34535929  0.58837259  0.20428931     0.83400
N618        N  0.32110012  0.55398969  0.19863674    -0.79100
C619        C  0.02446975  0.77737880  0.17790690     0.80800
N620        N  0.50599680  0.75874716  0.20325392    -0.77500
C621        C  0.47196366  0.74999133  0.20806326     0.83300
N622        N  0.45731811  0.76448837  0.19029422    -0.77400
C623        C  0.47542435  0.78720754  0.16771365     0.83400
N624        N  0.00886795  0.79079317  0.16004715    -0.79100
C625        C  0.37617195  0.88531256  0.10414311     0.80800
N626        N  0.38721923  0.86388220  0.11733100    -0.77500
C627        C  0.41585768  0.86293545  0.10648105     0.83300
N628        N  0.43329220  0.88336405  0.08245250    -0.77400
C629        C  0.42297352  0.90494278  0.06918365     0.83400
N630        N  0.39451647  0.90640809  0.08018826    -0.79100
C631        C  0.19357500  0.87469991  0.14955798     0.02900
C632        C  0.23002048  0.88808721  0.14939034     0.02900
C633        C  0.24378899  0.86401306  0.14992004     0.02900
C634        C  0.22104134  0.82686436  0.15281498     0.02900
C635        C  0.18503261  0.81364413  0.15101765     0.02900
C636        C  0.17127634  0.83741271  0.15157514     0.02900
Zr637      Zr  0.37469302  0.68117918  0.37370601     2.17500
O638        O  0.37171583  0.66017168  0.42490742    -0.50700
O639        O  0.38275244  0.73212506  0.40376716    -0.73900
O640        O  0.42653641  0.68017377  0.38932929    -0.80700
O641        O  0.27492446  0.63579551  0.37217051    -0.82500
O642        O  0.46614599  0.69464995  0.35121120    -0.78100
O643        O  0.32038939  0.63731877  0.39634293    -0.89700
O644        O  0.40551797  0.78240118  0.37481399    -0.75700
O645        O  0.41859611  0.72991027  0.34549403    -0.85200
O646        O  0.34552644  0.71151221  0.35453152    -0.84900
O647        O  0.39474619  0.65380628  0.33692491    -0.71600
O648        O  0.32916782  0.63802999  0.34449707    -0.83700
Zr649      Zr  0.36415398  0.69151831  0.25887894     2.26400
Zr650      Zr  0.43823349  0.70337812  0.30788934     2.06300
Zr651      Zr  0.30028626  0.66845114  0.32493643     2.10000
Zr652      Zr  0.38936067  0.75966961  0.32532307     1.78800
O653        O  0.24265662  0.61785549  0.31885997    -0.92500
O654        O  0.44658229  0.81215262  0.32000290    -0.40400
O655        O  0.34341248  0.71766783  0.29567703    -0.77000
O656        O  0.41016500  0.73488263  0.28775111    -0.95700
O657        O  0.39258694  0.66095767  0.27834542    -0.89000
O658        O  0.32019232  0.64276638  0.28705669    -0.91800
C659        C  0.39555377  0.76609536  0.39996883     1.01900
C660        C  0.28791284  0.62637485  0.39359353     1.14900
C661        C  0.45600811  0.68605223  0.37848689     1.05600
O662        O  0.49242642  0.75818098  0.31504336    -0.94000
O663        O  0.46365010  0.72699414  0.25811717    -0.89700
O664        O  0.41742532  0.71497906  0.22947999    -0.82900
C665        C  0.45009995  0.72816828  0.23338837     1.12300
O666        O  0.34347282  0.56931160  0.34516771    -0.96000
Zr667      Zr  0.34876436  0.61236869  0.30675009     1.88900
O668        O  0.35364022  0.64101600  0.22750673    -0.72600
O669        O  0.46711394  0.66973187  0.29152166    -0.51900
O670        O  0.38675673  0.58731048  0.29408199    -0.96500
O671        O  0.28982715  0.56228608  0.31006295    -0.53800
O672        O  0.33745082  0.59102189  0.25614700    -0.73100
C673        C  0.34400812  0.60749879  0.23094336     0.99200
O674        O  0.37072470  0.73606099  0.22105630    -0.61900
O675        O  0.27427888  0.70360808  0.34454340    -0.56700
O676        O  0.30984607  0.68399656  0.24033761    -0.93400
O677        O  0.27352444  0.67555023  0.28019624    -0.91800
O678        O  0.34937593  0.78301444  0.33578366    -0.92200
O679        O  0.39406972  0.80346922  0.28791895    -0.91000
C680        C  0.28140788  0.68008528  0.25224587     1.18100
H681        H  0.33546289  0.71974308  0.36985586     0.34000
H682        H  0.42619170  0.75483310  0.27530811     0.44900
H683        H  0.30136184  0.62724350  0.27472391     0.38400
H684        H  0.40448296  0.64023045  0.34609395     0.34900
H685        H  0.44427394  0.83142837  0.33022961     0.26700
H686        H  0.45781169  0.66088885  0.27170233     0.32600
H687        H  0.40916694  0.60363235  0.30299537     0.38500
H688        H  0.35344998  0.79108668  0.35655708     0.33000
H689        H  0.26818750  0.71302993  0.32680141     0.31800
H690        H  0.22641939  0.62623718  0.32618697     0.33500
H691        H  0.27816533  0.56501005  0.29245607     0.32500
H692        H  0.38480241  0.78944065  0.26978990     0.36500
H693        H  0.35450275  0.74498651  0.22713619     0.29200
H694        H  0.39159129  0.67947091  0.43502342     0.33500
H695        H  0.33645873  0.54659527  0.33473162     0.36300
H696        H  0.25163203  0.68572015  0.35349438     0.28900
H697        H  0.39382306  0.75692950  0.22410209     0.41800
H698        H  0.49142544  0.77616903  0.30164987     0.31800
H699        H  0.46152611  0.80685048  0.33294228     0.39500
H700        H  0.27865025  0.56781561  0.32709084     0.31300
H701        H  0.49154919  0.68812935  0.28742021     0.31400
H702        H  0.37685936  0.63995834  0.42399765     0.31600
C703        C  0.35685611  0.95359490  0.51395944     0.80800
N704        N  0.34207209  0.96968423  0.49799736    -0.77500
C705        C  0.30939398  0.96339921  0.50476368     0.83300
N706        N  0.29147514  0.94027169  0.52726592    -0.77400
C707        C  0.30558905  0.92400504  0.54367317     0.83400
N708        N  0.33890107  0.93121684  0.53750160    -0.79100
C709        C  0.21506451  0.57242925  0.44710065     0.79600
N710        N  0.22762395  0.55228957  0.46020255    -0.77500
C711        C  0.25875708  0.55547716  0.45132428     0.83300
N712        N  0.27748534  0.57961666  0.42955427    -0.77400
C713        C  0.26533382  0.59982520  0.41611346     0.83400
N714        N  0.23381875  0.59599293  0.42463875    -0.79100
C715        C  0.15705186  0.70473711  0.51019392     0.80800
N716        N  0.18792126  0.71885135  0.49475394    -0.77500
C717        C  0.21483110  0.75093755  0.50194669     0.83300
N718        N  0.21017652  0.76915274  0.52450940    -0.77400
C719        C  0.17977102  0.75559454  0.54029361     0.83400
N720        N  0.15331569  0.72275757  0.53372550    -0.79100
C721        C  0.41542840  0.83826999  0.45447408     0.80800
N722        N  0.42036587  0.81854399  0.43294354    -0.77500
C723        C  0.39334862  0.78656209  0.42516061     0.83300
N724        N  0.36143411  0.77552977  0.43763702    -0.77400
C725        C  0.35565243  0.79537958  0.45798453     0.83400
N726        N  0.38292814  0.82657140  0.46649713    -0.79100
C727        C  0.07933531  0.88732800  0.53121447     0.80800
N728        N  0.09279043  0.88403880  0.55730799    -0.77500
C729        C  0.09354279  0.85307811  0.56375075     0.83300
N730        N  0.08198976  0.82648067  0.54379078    -0.77400
C731        C  0.06845242  0.82969572  0.51805992     0.83400
N732        N  0.06733167  0.86012632  0.51194084    -0.79100
C733        C  0.49571882  0.65396747  0.43424743     0.80800
N734        N  0.01742103  0.68505113  0.44540930    -0.77500
C735        C  0.51183178  0.71449046  0.44214766     0.83300
N736        N  0.49570099  0.71517182  0.41717082    -0.77400
C737        C  0.47998171  0.68582389  0.40025509     0.83400
N738        N  0.47929136  0.65472647  0.40907842    -0.79100
C739        C  0.06089512  0.55890938  0.48118109     0.02900
C740        C  0.02481273  0.54474849  0.47845714     0.02900
C741        C  0.50197732  0.50640263  0.47974525     0.02900
C742        C  0.01484015  0.98256484  0.48465511     0.02900
C743        C  0.05094757  0.99632360  0.48746160     0.02900
C744        C  0.07511181  0.53564536  0.48299320     0.02900
C745        C  0.33164359  0.82490614  0.76663841     0.80800
N746        N  0.30966106  0.82480977  0.74576967    -0.77500
C747        C  0.31392892  0.85641098  0.73430390     0.83300
N748        N  0.33983205  0.88776411  0.74391523    -0.77400
C749        C  0.36179505  0.88814474  0.76479976     0.83400
N750        N  0.35734421  0.85654518  0.77602740    -0.79100
C751        C  0.43704202  0.56994233  0.83956277     0.80800
N752        N  0.45415437  0.57110567  0.86484603    -0.77500
C753        C  0.46722497  0.54804231  0.86863701     0.83300
N754        N  0.46176476  0.52316616  0.84785410    -0.77400
C755        C  0.44369318  0.52088188  0.82327321     0.83400
N756        N  0.43165412  0.54450067  0.81932987    -0.79100
C757        C  0.24297362  0.50213821  0.79053862     0.80800
N758        N  0.21255413  0.98630310  0.80760601    -0.77500
C759        C  0.18654596  0.95326528  0.80112654     0.83300
N760        N  0.19176277  0.93537816  0.77857701    -0.77400
C761        C  0.22181279  0.95015665  0.76217451     0.83400
N762        N  0.24724234  0.98365455  0.76815717    -0.79100
C763        C  0.48715451  0.86142316  0.85408490     0.80800
N764        N  0.01937047  0.87129854  0.84223734    -0.77500
C765        C  0.04697701  0.90123773  0.85204698     0.83300
N766        N  0.04131132  0.92040805  0.87309278    -0.77400
C767        C  0.00918890  0.91014117  0.88494758     0.83400
N768        N  0.48183082  0.88082631  0.87561510    -0.79100
C769        C  0.19318067  0.64725525  0.86252474     0.80800
N770        N  0.17466218  0.62659051  0.88655341    -0.77500
C771        C  0.14614423  0.62835313  0.89699326     0.83300
N772        N  0.13595388  0.64981507  0.88315556    -0.77400
C773        C  0.15376558  0.66989104  0.85907670     0.83400
N774        N  0.18234210  0.66846323  0.84882674    -0.79100
C775        C  0.04332924  0.74677020  0.78194745     0.80800
N776        N  0.05876805  0.73224648  0.79893360    -0.77500
C777        C  0.09175547  0.73938070  0.79277326     0.83300
N778        N  0.10944915  0.76139920  0.76973797    -0.77400
C779        C  0.09485460  0.77620732  0.75235099     0.83400
N780        N  0.06134768  0.76870421  0.75816205    -0.79100
C781        C  0.34973519  0.71029437  0.81422813     0.02900
C782        C  0.32707335  0.67321528  0.81739398     0.02900
C783        C  0.34062493  0.64905203  0.81652666     0.02900
C784        C  0.37699725  0.66230910  0.81542669     0.02900
C785        C  0.39954486  0.69956762  0.81337669     0.02900
C786        C  0.38583094  0.72338082  0.81475707     0.02900
Zr787      Zr  0.02122605  0.51239772  0.04106866     2.17500
O788        O  0.49713136  0.51430456  0.09087778    -0.50700
O789        O  0.06020199  0.50049040  0.07216999    -0.73900
O790        O  0.46888262  0.96170203  0.05804938    -0.80700
O791        O  0.07928338  0.61586299  0.03569023    -0.82500
O792        O  0.44854849  0.92129199  0.02103700    -0.78100
O793        O  0.03536263  0.56993810  0.06175694    -0.89700
O794        O  0.09181670  0.48134498  0.04482682    -0.75700
O795        O  0.02688220  0.96689690  0.01558551    -0.85200
O796        O  0.07913457  0.54198211  0.02113387    -0.84900
O797        O  0.47872221  0.99570264  0.00402378    -0.71600
O798        O  0.02458017  0.55974349  0.00947954    -0.83700
Zr799      Zr  0.04640457  0.52315050  0.92531380     2.26400
Zr800      Zr  0.48489993  0.95055818  0.97704414     2.06300
Zr801      Zr  0.08261328  0.58865563  0.98894637     2.10000
Zr802      Zr  0.08514996  0.49704919  0.99463861     1.78800
O803        O  0.08587879  0.64674528  0.98062363    -0.92500
O804        O  0.07783106  0.93528119  0.99655489    -0.40400
O805        O  0.09014534  0.54440888  0.96228298    -0.77000
O806        O  0.04304958  0.97554880  0.95837325    -0.95700
O807        O  0.98927540  0.99646987  0.94593307    -0.89000
O808        O  0.04035302  0.56869967  0.95077126    -0.91800
C809        C  0.08225894  0.48876738  0.06959629     1.01900
C810        C  0.05773807  0.60311692  0.05794351     1.14900
C811        C  0.44745701  0.93126932  0.04768224     1.05600
O812        O  0.97523933  0.88816887  0.98469150    -0.94000
O813        O  0.48592817  0.92251656  0.92977116    -0.89700
O814        O  0.02833189  0.96696144  0.90277176    -0.82900
C815        C  0.00623879  0.93386643  0.90693518     1.12300
O816        O  0.44518462  0.54641215  0.01052178    -0.96000
Zr817      Zr  0.48149913  0.54017777  0.97177679     1.88900
O818        O  0.00902342  0.53590698  0.89326592    -0.72600
O819        O  0.42559879  0.92858746  0.96118125    -0.51900
O820        O  0.42448742  0.00482627  0.96257306    -0.96500
O821        O  0.48981448  0.60101165  0.97021300    -0.53800
O822        O  0.47144147  0.55059521  0.92090676    -0.73100
C823        C  0.48383052  0.54632829  0.89621634     0.99200
O824        O  0.07068796  0.52853465  0.87493227    -0.61900
O825        O  0.14200877  0.61513829  0.00592562    -0.56700
O826        O  0.10376770  0.57077661  0.91090577    -0.93400
O827        O  0.11746058  0.61550198  0.94377964    -0.91800
O828        O  0.14549855  0.53277329  0.00814605    -0.92200
O829        O  0.12471365  0.49553264  0.95650780    -0.91000
C830        C  0.12199217  0.60308788  0.91916922     1.18100
H831        H  0.09602444  0.55209522  0.03641004     0.34000
H832        H  0.04779460  0.95834112  0.94843494     0.44900
H833        H  0.04427801  0.58833542  0.93732458     0.38400
H834        H  0.45565961  0.98601366  0.01289576     0.34900
H835        H  0.09846457  0.93729662  0.00664146     0.26700
H836        H  0.42755891  0.93127712  0.93926046     0.32600
H837        H  0.41665406  0.02024984  0.95240641     0.38500
H838        H  0.15403562  0.55538578  0.99650691     0.33000
H839        H  0.15450296  0.63840901  0.99508693     0.31800
H840        H  0.11078352  0.66427194  0.98232313     0.33500
H841        H  0.50229588  0.61162829  0.95109194     0.32500
H842        H  0.12103618  0.00206644  0.94082961     0.36500
H843        H  0.08217240  0.51342559  0.87465422     0.29200
H844        H  0.49590225  0.49369092  0.10220776     0.33500
H845        H  0.43255439  0.55729849  0.00056767     0.36300
H846        H  0.14078484  0.62157380  0.02682774     0.28900
H847        H  0.05412234  0.01868195  0.86348255     0.41800
H848        H  0.99815778  0.89005042  0.97976024     0.31800
H849        H  0.05822206  0.92162167  0.01083459     0.39500
H850        H  0.00954595  0.61281873  0.98720884     0.31300
H851        H  0.41420784  0.90242486  0.96500816     0.31400
H852        H  0.47271176  0.50895597  0.08881398     0.31600
Zr853      Zr  0.20607994  0.84831221  0.70800300     2.17500
O854        O  0.20024866  0.82210164  0.75763822    -0.50700
O855        O  0.21461613  0.89804965  0.73917828    -0.73900
O856        O  0.25811323  0.84725566  0.72447963    -0.80700
O857        O  0.10435657  0.80759576  0.70554809    -0.82500
O858        O  0.29934522  0.86890723  0.68718680    -0.78100
O859        O  0.14961718  0.81026277  0.73084120    -0.89700
O860        O  0.23035659  0.94795470  0.71073336    -0.75700
O861        O  0.24992841  0.89782740  0.68030254    -0.85200
O862        O  0.17697177  0.87839051  0.68830713    -0.84900
O863        O  0.22772295  0.82224967  0.67148936    -0.71600
O864        O  0.16030289  0.80544838  0.67886293    -0.83700
Zr865      Zr  0.19757877  0.85924246  0.59341214     2.26400
Zr866      Zr  0.27076662  0.87242214  0.64249926     2.06300
Zr867      Zr  0.13213240  0.83634661  0.65788429     2.10000
Zr868      Zr  0.22057648  0.92735546  0.66010879     1.78800
O869        O  0.07639885  0.78414305  0.64892580    -0.92500
O870        O  0.27923153  0.97777303  0.65851008    -0.40400
O871        O  0.17588985  0.88566127  0.62924137    -0.77000
O872        O  0.24241201  0.90357153  0.62258550    -0.95700
O873        O  0.22575925  0.82878332  0.61330832    -0.89000
O874        O  0.15305937  0.81029569  0.62101587    -0.91800
C875        C  0.22359388  0.93128395  0.73579710     1.01900
C876        C  0.11718392  0.79996697  0.72806328     1.14900
C877        C  0.28885735  0.85728776  0.71389806     1.05600
O878        O  0.32807864  0.92433002  0.64597132    -0.94000
O879        O  0.29688972  0.89784579  0.59293491    -0.89700
O880        O  0.25109036  0.88813886  0.56468867    -0.82900
C881        C  0.28366058  0.90086000  0.56852276     1.12300
O882        O  0.17714369  0.74008038  0.68260639    -0.96000
Zr883      Zr  0.18152384  0.78034513  0.64199457     1.88900
O884        O  0.18827031  0.80863236  0.56275912    -0.72600
O885        O  0.29527552  0.83423756  0.62747275    -0.51900
O886        O  0.21535035  0.75023441  0.63029521    -0.96500
O887        O  0.12223365  0.73109372  0.64581004    -0.53800
O888        O  0.17152403  0.75882573  0.59169565    -0.73100
C889        C  0.17855134  0.77518928  0.56647374     0.99200
O890        O  0.20413804  0.89699905  0.54997583    -0.61900
O891        O  0.10580613  0.87139108  0.67693824    -0.56700
O892        O  0.14432451  0.85381833  0.57554707    -0.93400
O893        O  0.10720871  0.84807523  0.61384926    -0.91800
O894        O  0.18175012  0.95227575  0.66966386    -0.92200
O895        O  0.22568539  0.97106101  0.62242819    -0.91000
C896        C  0.11634939  0.85205777  0.58617467     1.18100
H897        H  0.16662432  0.88622568  0.70370270     0.34000
H898        H  0.25831915  0.92399530  0.61051136     0.44900
H899        H  0.13459369  0.79465814  0.60842043     0.38400
H900        H  0.23802632  0.80918319  0.68061551     0.34900
H901        H  0.27676223  0.99781947  0.66700863     0.26700
H902        H  0.28677495  0.82654536  0.60724228     0.32600
H903        H  0.23573930  0.76152472  0.64307657     0.38500
H904        H  0.19674312  0.97632086  0.67761357     0.33000
H905        H  0.11197713  0.89068734  0.66184881     0.31800
H906        H  0.05885495  0.79102793  0.65570605     0.33500
H907        H  0.11361270  0.72777466  0.62535153     0.32500
H908        H  0.20997658  0.95662854  0.60666538     0.36500
H909        H  0.18947206  0.88084749  0.53444238     0.29200
H910        H  0.21930790  0.84032235  0.76926722     0.33500
H911        H  0.16714393  0.71600676  0.67391156     0.36300
H912        H  0.08051411  0.85570308  0.67504906     0.28900
H913        H  0.19315526  0.91179028  0.55554058     0.41800
H914        H  0.32399945  0.94515671  0.64405268     0.31800
H915        H  0.29163472  0.97179951  0.67373950     0.39500
H916        H  0.10900240  0.74104181  0.65659719     0.31300
H917        H  0.32041751  0.85087572  0.62439565     0.31400
H918        H  0.20573573  0.80224110  0.75536811     0.31600
C919        C  0.99536718  0.73127599  0.81985646     0.24200
C920        C  0.00699978  0.73764403  0.78978679    -0.23900
C921        C  0.48548060  0.73501372  0.77052184     0.19100
C922        C  0.45002513  0.72150340  0.77725949     0.24200
C923        C  0.43729607  0.71387048  0.80683804    -0.23800
C924        C  0.46050138  0.72045982  0.82969999     0.19100
F925        F  0.44873936  0.71394647  0.85842807    -0.13800
F926        F  0.01788910  0.73693784  0.84188808    -0.16200
F927        F  0.42785560  0.71522686  0.75480223    -0.16200
F928        F  0.49662515  0.74100230  0.74163352    -0.13800
C929        C  0.28451242  0.66031410  0.85933396     0.24200
C930        C  0.29098998  0.66114291  0.82850575    -0.23900
C931        C  0.26405722  0.65388562  0.80908657     0.19100
C932        C  0.23150276  0.64754773  0.82030713     0.24200
C933        C  0.22527983  0.64773368  0.85115912    -0.23800
C934        C  0.25177417  0.65311522  0.87060784     0.19100
F935        F  0.24679775  0.65410128  0.90038511    -0.13800
F936        F  0.31055505  0.66828958  0.87846665    -0.16200
F937        F  0.20620630  0.64196434  0.80099999    -0.16200
F938        F  0.26969087  0.65431942  0.77930278    -0.13800
C939        C  0.10221861  0.71726450  0.84090879     0.24200
C940        C  0.10830298  0.72270196  0.81011214    -0.23900
C941        C  0.13077194  0.71235001  0.79576500     0.19100
C942        C  0.14621371  0.69598954  0.81180441     0.24200
C943        C  0.13987332  0.69005822  0.84262202    -0.23800
C944        C  0.11797213  0.70121095  0.85709128     0.19100
F945        F  0.11184391  0.69674576  0.88693071    -0.13800
F946        F  0.08160886  0.72816045  0.85544194    -0.16200
F947        F  0.16597936  0.68440462  0.79678958    -0.16200
F948        F  0.13674622  0.71670237  0.76590036    -0.13800
C949        C  0.43495770  0.80216680  0.86384946     0.24200
C950        C  0.45820780  0.82809050  0.84340734    -0.23900
C951        C  0.45540827  0.82057937  0.81285556     0.19100
C952        C  0.43017212  0.78728083  0.80304031     0.24200
C953        C  0.40862814  0.76066597  0.82372649    -0.23800
C954        C  0.41080683  0.76847220  0.85412073     0.19100
F955        F  0.39027225  0.74287144  0.87448859    -0.13800
F956        F  0.43719528  0.80860413  0.89341328    -0.16200
F957        F  0.42732124  0.78065340  0.77353696    -0.16200
F958        F  0.47736957  0.84534664  0.79258438    -0.13800
C959        C  0.28968897  0.56356443  0.77469140     0.24200
C960        C  0.26969716  0.53907357  0.79754602    -0.23900
C961        C  0.27436362  0.55073030  0.82716073     0.19100
C962        C  0.29787442  0.58628185  0.83364376     0.24200
C963        C  0.31709576  0.61071819  0.81069332    -0.23800
C964        C  0.31329734  0.59896402  0.78127121     0.19100
F965        F  0.33200623  0.62216631  0.75876739    -0.13800
F966        F  0.28523869  0.55378222  0.74583001    -0.16200
F967        F  0.30185767  0.59684731  0.86227530    -0.16200
F968        F  0.25635505  0.52761628  0.84990626    -0.13800
C969        C  0.14440223  0.95857678  0.83705451     0.24200
C970        C  0.15148564  0.93848762  0.81600177    -0.23900
C971        C  0.12392654  0.90504458  0.80790565     0.19100
C972        C  0.09033248  0.89258915  0.81997722     0.24200
C973        C  0.08300275  0.91344576  0.84004961    -0.23800
C974        C  0.11075161  0.94645236  0.84865651     0.19100
F975        F  0.10562906  0.96772112  0.86814053    -0.13800
F976        F  0.16982386  0.99054993  0.84625011    -0.16200
F977        F  0.06507544  0.85999410  0.81177392    -0.16200
F978        F  0.12903688  0.88422157  0.78789620    -0.13800
C979        C  0.40824635  0.60586004  0.85694046     0.24200
C980        C  0.42283190  0.59480005  0.83384321    -0.23900
C981        C  0.42172622  0.60584010  0.80440260     0.19100
C982        C  0.40600056  0.62688699  0.79818937     0.24200
C983        C  0.39156251  0.63783664  0.82125945    -0.23800
C984        C  0.39291968  0.62734139  0.85066347     0.19100
F985        F  0.37959147  0.63827147  0.87334605    -0.13800
F986        F  0.40786297  0.59506396  0.88544129    -0.16200
F987        F  0.40497229  0.63669183  0.76964773    -0.16200
F988        F  0.43649271  0.59678240  0.78156119    -0.13800
C989        C  0.32770874  0.76464951  0.76095143     0.24200
C990        C  0.32842588  0.79135187  0.77944650    -0.23900
C991        C  0.33079081  0.78804236  0.81033035     0.19100
C992        C  0.33470955  0.75981811  0.82233561     0.24200
C993        C  0.33690310  0.73482161  0.80356452    -0.23800
C994        C  0.33226398  0.73679447  0.77291414     0.19100
F995        F  0.33466710  0.71310380  0.75429470    -0.13800
F996        F  0.32555435  0.76714916  0.73108154    -0.16200
F997        F  0.33806503  0.75793624  0.85205470    -0.16200
F998        F  0.33037303  0.81288412  0.82878351    -0.13800
C999        C  0.42693946  0.95544199  0.81693971     0.24200
C1000       C  0.43036992  0.98788255  0.80553440    -0.23900
C1001       C  0.41553314  0.98767286  0.77808997     0.19100
C1002       C  0.39507744  0.95551961  0.76390128     0.24200
C1003       C  0.38832831  0.92259510  0.77706935    -0.23800
C1004       C  0.40562372  0.92314049  0.80325605     0.19100
F1005       F  0.40043743  0.89236494  0.81690543    -0.13800
F1006       F  0.44215447  0.95436872  0.84254097    -0.16200
F1007       F  0.38092195  0.95680385  0.73774727    -0.16200
F1008       F  0.41971574  0.01853014  0.76533497    -0.13800
C1009       C  0.99949288  0.59627359  0.42538611     0.24200
C1010       C  0.49585657  0.62116313  0.44533018    -0.23900
C1011       C  0.49721382  0.61588024  0.47621501     0.19100
C1012       C  0.50398742  0.58909706  0.48694876     0.24200
C1013       C  0.01124950  0.56838339  0.46773769    -0.23800
C1014       C  0.00662470  0.57014041  0.43711105     0.19100
F1015       F  0.01165168  0.54817465  0.41831494    -0.13800
F1016       F  0.99769570  0.59902766  0.39550600    -0.16200
F1017       F  0.50694633  0.58576624  0.51658540    -0.16200
F1018       F  0.49309392  0.63743268  0.49610811    -0.13800
C1019       C  0.05788288  0.96281216  0.52988583     0.24200
C1020       C  0.06374146  0.97264819  0.49952618    -0.23900
C1021       C  0.07980543  0.95839532  0.48102007     0.19100
C1022       C  0.08736509  0.93237787  0.49217898     0.24200
C1023       C  0.07899277  0.92035620  0.52203724    -0.23800
C1024       C  0.06551960  0.93678922  0.54113142     0.19100
F1025       F  0.05749210  0.92590845  0.57001288    -0.13800
F1026       F  0.04356485  0.97756385  0.54833972    -0.16200
F1027       F  0.10185849  0.91798220  0.47353363    -0.16200
F1028       F  0.08686126  0.96858758  0.45195352    -0.13800
C1029       C  0.03099567  0.79701861  0.47635658     0.24200
C1030       C  0.05730626  0.80167964  0.49581607    -0.23900
C1031       C  0.07329037  0.78003146  0.49322925     0.19100
C1032       C  0.06190233  0.75298877  0.47245021     0.24200
C1033       C  0.03486970  0.74767581  0.45358303    -0.23800
C1034       C  0.02024086  0.77064845  0.45510818     0.19100
F1035       F  0.48474789  0.76349554  0.44586312    -0.13800
F1036       F  0.01445530  0.81689409  0.47874552    -0.16200
F1037       F  0.07711260  0.73178692  0.47096856    -0.16200
F1038       F  0.10010679  0.78515329  0.51057047    -0.13800
C1039       C  0.47042949  0.89608527  0.44271305     0.24200
C1040       C  0.44411278  0.87374021  0.46334407    -0.23900
C1041       C  0.44391100  0.88687348  0.49204621     0.19100
C1042       C  0.46848733  0.92177554  0.49944596     0.24200
C1043       C  0.49292576  0.94480456  0.47805510    -0.23800
C1044       C  0.49399888  0.93144996  0.44978967     0.19100
F1045       F  0.01767997  0.95144380  0.43020874    -0.13800
F1046       F  0.47216824  0.88454004  0.41503742    -0.16200
F1047       F  0.46782491  0.93341113  0.52728387    -0.16200
F1048       F  0.41972326  0.86600683  0.51300982    -0.13800
C1049       C  0.11098008  0.64276654  0.52507096     0.24200
C1050       C  0.12925911  0.66861587  0.50260657    -0.23900
C1051       C  0.12312145  0.65861314  0.47263450     0.19100
C1052       C  0.09983125  0.62327229  0.46533959     0.24200
C1053       C  0.08308633  0.59726414  0.48787976    -0.23800
C1054       C  0.08852278  0.60731158  0.51772537     0.19100
F1055       F  0.07257652  0.58235972  0.53980127    -0.13800
F1056       F  0.11634636  0.65127500  0.55415345    -0.16200
F1057       F  0.09426697  0.61427407  0.43637622    -0.16200
F1058       F  0.13990240  0.68306328  0.45039709    -0.13800
C1059       C  0.27826372  0.79669539  0.49668392     0.24200
C1060       C  0.25022021  0.76379398  0.48833037    -0.23900
C1061       C  0.25715463  0.74209822  0.46887648     0.19100
C1062       C  0.29118852  0.75202780  0.45940408     0.24200
C1063       C  0.31940175  0.78440944  0.46859949    -0.23800
C1064       C  0.31222740  0.80682310  0.48694647     0.19100
F1065       F  0.33801007  0.83881671  0.49569440    -0.13800
F1066       F  0.27320985  0.81935192  0.51462509    -0.16200
F1067       F  0.29617756  0.72938147  0.44138267    -0.16200
F1068       F  0.23117031  0.71070690  0.45927258    -0.13800
C1069       C  0.13674128  0.55389699  0.49623381     0.24200
C1070       C  0.11229051  0.54932661  0.47493191    -0.23900
C1071       C  0.12255647  0.55542947  0.44472696     0.19100
C1072       C  0.15655817  0.56483742  0.43573859     0.24200
C1073       C  0.18067382  0.56751032  0.45683061    -0.23800
C1074       C  0.17068314  0.56261107  0.48722248     0.19100
F1075       F  0.19375012  0.56599518  0.50814733    -0.13800
F1076       F  0.12753701  0.54910866  0.52556337    -0.16200
F1077       F  0.16519255  0.56895860  0.40627847    -0.16200
F1078       F  0.09901644  0.55054934  0.42378655    -0.13800
C1079       C  0.43843599  0.97643267  0.46841956     0.24200
C1080       C  0.46400105  0.99345430  0.48948195    -0.23900
C1081       C  0.45529934  0.49368509  0.51760327     0.19100
C1082       C  0.42042256  0.47996866  0.52628082     0.24200
C1083       C  0.39321163  0.96330002  0.50649436    -0.23800
C1084       C  0.40323286  0.96145164  0.47688493     0.19100
F1085       F  0.37881121  0.94528211  0.45616986    -0.13800
F1086       F  0.44758834  0.97448715  0.43977424    -0.16200
F1087       F  0.41206481  0.48341168  0.55485064    -0.16200
F1088       F  0.48004749  0.50877483  0.53823989    -0.13800
C1089       C  0.29709485  0.52641473  0.44963064     0.24200
C1090       C  0.27214382  0.53270742  0.46490300    -0.23900
C1091       C  0.26019380  0.51701002  0.49331895     0.19100
C1092       C  0.26875732  0.98938752  0.50456762     0.24200
C1093       C  0.29433207  0.98374201  0.48976321    -0.23800
C1094       C  0.30972780  0.50507590  0.46251580     0.19100
F1095       F  0.33335731  0.49938900  0.44683396    -0.13800
F1096       F  0.30910090  0.54047760  0.42195560    -0.16200
F1097       F  0.25669572  0.97563943  0.53230653    -0.16200
F1098       F  0.23717690  0.52329358  0.50935023    -0.13800
C1099       C  0.31919495  0.88405482  0.09705255     0.24200
C1100       C  0.34455166  0.88551517  0.11624415    -0.23900
C1101       C  0.33804066  0.88400107  0.14719767     0.19100
C1102       C  0.30607191  0.87931671  0.15865048     0.24200
C1103       C  0.28011336  0.87592094  0.13930702    -0.23800
C1104       C  0.28722095  0.87901081  0.10849322     0.19100
F1105       F  0.26216221  0.87478489  0.08936027    -0.13800
F1106       F  0.32431455  0.88483149  0.06715260    -0.16200
F1107       F  0.30005645  0.87683407  0.18848739    -0.16200
F1108       F  0.36251768  0.88657486  0.16634109    -0.13800
C1109       C  0.07437029  0.79568896  0.14168753     0.24200
C1110       C  0.06164214  0.78908976  0.17147576    -0.23900
C1111       C  0.08538134  0.79867131  0.19442882     0.19100
C1112       C  0.12110727  0.81570577  0.18772730     0.24200
C1113       C  0.13358143  0.82265335  0.15805131    -0.23800
C1114       C  0.11001856  0.81218531  0.13507888     0.19100
F1115       F  0.12155478  0.81777744  0.10628933    -0.13800
F1116       F  0.05220162  0.78623154  0.11886201    -0.16200
F1117       F  0.14372236  0.82538224  0.21021484    -0.16200
F1118       F  0.07416497  0.79300378  0.22329837    -0.13800
C1119       C  0.42353260  0.79117023  0.15033252     0.24200
C1120       C  0.45989221  0.80550038  0.15082881    -0.23900
C1121       C  0.48131700  0.83854052  0.13633638     0.19100
C1122       C  0.46678085  0.85690975  0.12196181     0.24200
C1123       C  0.43049658  0.84296339  0.12199534    -0.23800
C1124       C  0.40898035  0.81002119  0.13641969     0.19100
F1125       F  0.37388578  0.79552868  0.13630545    -0.13800
F1126       F  0.40195197  0.75847959  0.16264077    -0.16200
F1127       F  0.48850843  0.88903062  0.10870879    -0.16200
F1128       F  0.01688692  0.85114305  0.13669785    -0.13800
C1129       C  0.28150239  0.97381128  0.19057191     0.24200
C1130       C  0.29936165  0.99868667  0.16733193    -0.23900
C1131       C  0.29317010  0.98714984  0.13773679     0.19100
C1132       C  0.26999269  0.95137950  0.13158928     0.24200
C1133       C  0.25327374  0.92650183  0.15490806    -0.23800
C1134       C  0.25899713  0.93800381  0.18437431     0.19100
F1135       F  0.24313466  0.91421744  0.20723710    -0.13800
F1136       F  0.28697628  0.98371374  0.21936846    -0.16200
F1137       F  0.26407352  0.94101519  0.10295614    -0.16200
F1138       F  0.30935818  0.01058447  0.11473472    -0.13800
C1139       C  0.11343959  0.71713353  0.15216364     0.24200
C1140       C  0.10988533  0.71022654  0.12151611    -0.23900
C1141       C  0.13400188  0.73595075  0.10130148     0.19100
C1142       C  0.15980033  0.76874253  0.11144983     0.24200
C1143       C  0.16225225  0.77621051  0.14191986    -0.23800
C1144       C  0.13956594  0.74980804  0.16229939     0.19100
F1145       F  0.14175533  0.75627477  0.19183430    -0.13800
F1146       F  0.09122556  0.69235518  0.17229417    -0.16200
F1147       F  0.18119787  0.79425741  0.09137479    -0.16200
F1148       F  0.13112333  0.73045351  0.07161432    -0.13800
C1149       C  0.45355511  0.60520820  0.10864316     0.24200
C1150       C  0.48299596  0.62989145  0.12393487    -0.23900
C1151       C  0.47780617  0.64357700  0.15075345     0.19100
C1152       C  0.44437063  0.63115960  0.16296705     0.24200
C1153       C  0.41512809  0.60445925  0.14879022    -0.23800
C1154       C  0.42011108  0.59243307  0.12106470     0.19100
F1155       F  0.39265018  0.56810126  0.10591372    -0.13800
F1156       F  0.45690829  0.59304730  0.08163140    -0.16200
F1157       F  0.44110850  0.64423364  0.18955779    -0.16200
F1158       F  0.99917717  0.68180630  0.14659348    -0.13800
C1159       C  0.24010419  0.77029777  0.20605938     0.24200
C1160       C  0.24096236  0.74477765  0.18706262    -0.23900
C1161       C  0.24046993  0.74955700  0.15612364     0.19100
C1162       C  0.23723551  0.77835909  0.14447403     0.24200
C1163       C  0.23347318  0.80212595  0.16363118    -0.23800
C1164       C  0.23597913  0.79852857  0.19443931     0.19100
F1165       F  0.23204604  0.82103531  0.21341059    -0.13800
F1166       F  0.24025511  0.76618366  0.23597494    -0.16200
F1167       F  0.23601837  0.78202816  0.11464876    -0.16200
F1168       F  0.24210763  0.72569132  0.13724553    -0.13800
C1169       C  0.16779253  0.91283079  0.16769451     0.24200
C1170       C  0.17849303  0.89892670  0.14405469    -0.23900
C1171       C  0.17235468  0.90581193  0.11481675     0.19100
C1172       C  0.15594525  0.92652014  0.10925393     0.24200
C1173       C  0.14535926  0.94086283  0.13292995    -0.23800
C1174       C  0.15130520  0.93339570  0.16227812     0.19100
F1175       F  0.14061216  0.94549163  0.18597064    -0.13800
F1176       F  0.17306516  0.90622164  0.19610844    -0.16200
F1177       F  0.15136848  0.93331270  0.08069058    -0.16200
F1178       F  0.18226156  0.89229906  0.09159107    -0.13800
C1179       C  0.14796841  0.58160973  0.14594284     0.24200
C1180       C  0.14234892  0.54881651  0.15836704    -0.23900
C1181       C  0.15526746  0.54850419  0.18661184     0.19100
C1182       C  0.17579571  0.58057239  0.20097308     0.24200
C1183       C  0.18395699  0.61369957  0.18729501    -0.23800
C1184       C  0.16860718  0.61360869  0.16010880     0.19100
F1185       F  0.17501670  0.64456517  0.14604309    -0.13800
F1186       F  0.13572248  0.58327010  0.11890547    -0.16200
F1187       F  0.18819188  0.57901582  0.22796770    -0.16200
F1188       F  0.14878161  0.51716836  0.20006115    -0.13800
C1189       C  0.62861932  0.46535971  0.12500081     0.80800
N1190       N  0.63692607  0.49238604  0.14421293    -0.77500
C1191       C  0.62792013  0.01848015  0.14166941     0.83300
N1192       N  0.60805547  0.01561845  0.11822767    -0.77400
C1193       C  0.59733144  0.48742502  0.09742129     0.83400
N1194       N  0.60943358  0.46342610  0.10088981    -0.79100
C1195       C  0.73868354  0.21352684  0.19999509     0.80800
N1196       N  0.71342346  0.18175685  0.19034726    -0.77500
C1197       C  0.70962029  0.15029962  0.20135443     0.83300
N1198       N  0.73202181  0.15102189  0.22189454    -0.77400
C1199       C  0.75742545  0.18244810  0.23174678     0.83400
N1200       N  0.76087935  0.21393461  0.22080792    -0.79100
C1201       C  0.58019524  0.17766159  0.11137950     0.80800
N1202       N  0.58457986  0.15821944  0.08937153    -0.77500
C1203       C  0.55648560  0.12898550  0.07921936     0.83300
N1204       N  0.52451661  0.11985512  0.09063242    -0.77400
C1205       C  0.51949003  0.13923700  0.11182964     0.83400
N1206       N  0.54765697  0.16811118  0.12242420    -0.79100
C1207       C  0.82635565  0.03725529  0.17269509     0.80800
N1208       N  0.85678863  0.05338258  0.15646718    -0.77500
C1209       C  0.88211279  0.08673216  0.16311975     0.83300
N1210       N  0.87643068  0.10399311  0.18584344    -0.77400
C1211       C  0.84670183  0.08844466  0.20252285     0.83400
N1212       N  0.82179496  0.05459515  0.19643083    -0.79100
C1213       C  0.52219263  0.27555041  0.17608210     0.80800
N1214       N  0.00817573  0.25899591  0.20332771    -0.77500
C1215       C  0.97409939  0.25009900  0.20839091     0.83300
N1216       N  0.95910132  0.26402138  0.19043893    -0.77400
C1217       C  0.97672960  0.28624039  0.16746187     0.83400
N1218       N  0.50580676  0.28672028  0.15703375    -0.79100
C1219       C  0.87620711  0.38485352  0.10634472     0.80800
N1220       N  0.88743965  0.36360420  0.11964181    -0.77500
C1221       C  0.91595442  0.36245954  0.10862584     0.83300
N1222       N  0.93298975  0.38229483  0.08419078    -0.77400
C1223       C  0.92255686  0.40365644  0.07069222     0.83400
N1224       N  0.89438690  0.40554470  0.08205416    -0.79100
C1225       C  0.69201763  0.37528601  0.14748470     0.02900
C1226       C  0.72859701  0.38900732  0.14811906     0.02900
C1227       C  0.74253527  0.36497161  0.14901935     0.02900
C1228       C  0.71976620  0.32777792  0.15203486     0.02900
C1229       C  0.68380045  0.31446042  0.14999328     0.02900
C1230       C  0.66975359  0.33797744  0.14978473     0.02900
Zr1231     Zr  0.87422653  0.17898229  0.37321293     2.17500
O1232       O  0.87018810  0.15789380  0.42452793    -0.50700
O1233       O  0.88239487  0.23102628  0.40209499    -0.73900
O1234       O  0.92614669  0.17863900  0.38950150    -0.80700
O1235       O  0.77433699  0.13408468  0.37063612    -0.82500
O1236       O  0.96564625  0.19287246  0.35126887    -0.78100
O1237       O  0.81919442  0.13426284  0.39488335    -0.89700
O1238       O  0.90938366  0.28090064  0.37289745    -0.75700
O1239       O  0.91822316  0.22755817  0.34479179    -0.85200
O1240       O  0.84515972  0.20902224  0.35349568    -0.84900
O1241       O  0.89478153  0.15176209  0.33665127    -0.71600
O1242       O  0.82941375  0.13588721  0.34347364    -0.83700
Zr1243     Zr  0.86483083  0.19027343  0.25787296     2.26400
Zr1244     Zr  0.93819970  0.20102936  0.30737357     2.06300
Zr1245     Zr  0.80049144  0.16609300  0.32355884     2.10000
Zr1246     Zr  0.88907114  0.25738175  0.32455300     1.78800
O1247       O  0.74490971  0.11359556  0.31482123    -0.92500
O1248       O  0.94511110  0.31018852  0.31477893    -0.40400
O1249       O  0.84343258  0.21571811  0.29465204    -0.77000
O1250       O  0.91047824  0.23298127  0.28729798    -0.95700
O1251       O  0.89300251  0.15919020  0.27719207    -0.89000
O1252       O  0.82113795  0.14106829  0.28583715    -0.91800
C1253       C  0.89731154  0.26517807  0.39797239     1.01900
C1254       C  0.78677152  0.12377535  0.39186187     1.14900
C1255       C  0.95562497  0.18457904  0.37859754     1.05600
O1256       O  0.99508915  0.25296883  0.31292475    -0.94000
O1257       O  0.96545135  0.22649173  0.25850298    -0.89700
O1258       O  0.91943738  0.21506345  0.22981398    -0.82900
C1259       C  0.95214190  0.22814118  0.23377104     1.12300
O1260       O  0.83928142  0.06494355  0.34362054    -0.96000
Zr1261     Zr  0.84948069  0.11053350  0.30581268     1.88900
O1262       O  0.85294657  0.14016327  0.22583609    -0.72600
O1263       O  0.96092925  0.16243462  0.28925018    -0.51900
O1264       O  0.88882411  0.08559496  0.29936131    -0.96500
O1265       O  0.79021946  0.06108860  0.30579825    -0.53800
O1266       O  0.84133160  0.09122040  0.25449377    -0.73100
C1267       C  0.84544902  0.10723646  0.22930207     0.99200
O1268       O  0.87093326  0.23449736  0.21987596    -0.61900
O1269       O  0.77310521  0.19929730  0.34438929    -0.56700
O1270       O  0.81087543  0.18474246  0.23976645    -0.93400
O1271       O  0.77470342  0.17648404  0.27968464    -0.91800
O1272       O  0.85030399  0.27999577  0.34152518    -0.92200
O1273       O  0.88909647  0.30002931  0.28823433    -0.91000
C1274       C  0.78277816  0.18168221  0.25178884     1.18100
H1275       H  0.83481098  0.21706172  0.36872507     0.34000
H1276       H  0.92668182  0.25314416  0.27514944     0.44900
H1277       H  0.80246731  0.12567966  0.27330896     0.38400
H1278       H  0.90447098  0.13821796  0.34595594     0.34900
H1279       H  0.94498292  0.32877982  0.32775310     0.26700
H1280       H  0.98631206  0.17835819  0.28705498     0.32600
H1281       H  0.87792576  0.06666447  0.28451151     0.38500
H1282       H  0.86589805  0.30516555  0.34672783     0.33000
H1283       H  0.77583855  0.21681694  0.32859147     0.31800
H1284       H  0.72729578  0.12103349  0.31992129     0.33500
H1285       H  0.78080155  0.06319617  0.28658376     0.32500
H1286       H  0.88492277  0.28759521  0.26908611     0.36500
H1287       H  0.85589162  0.24460335  0.22663287     0.29200
H1288       H  0.88977814  0.17726496  0.43485603     0.33500
H1289       H  0.83186191  0.04242100  0.33276575     0.36300
H1290       H  0.74796094  0.18198933  0.34520042     0.28900
H1291       H  0.89458583  0.25485637  0.22186725     0.41800
H1292       H  0.99342370  0.26314227  0.33220369     0.31800
H1293       H  0.96212259  0.30417999  0.32365340     0.39500
H1294       H  0.77742390  0.06751502  0.32080843     0.31300
H1295       H  0.95809898  0.14637109  0.30630748     0.31400
H1296       H  0.87557662  0.13783960  0.42382057     0.31600
C1297       C  0.86003976  0.45942134  0.51370868     0.80800
N1298       N  0.84573191  0.47652074  0.49849452    -0.77500
C1299       C  0.81364047  0.47139490  0.50615553     0.83300
N1300       N  0.79579368  0.44827825  0.52872050    -0.77400
C1301       C  0.80953735  0.43093502  0.54427053     0.83400
N1302       N  0.84223767  0.43701196  0.53719658    -0.79100
C1303       C  0.71184925  0.06845931  0.44307381     0.79600
N1304       N  0.72303453  0.04669672  0.45526096    -0.77500
C1305       C  0.75395320  0.04926054  0.44662842     0.83300
N1306       N  0.77403102  0.07459113  0.42605937    -0.77400
C1307       C  0.76324656  0.09648181  0.41350726     0.83400
N1308       N  0.73181265  0.09317997  0.42173700    -0.79100
C1309       C  0.65944414  0.20571983  0.50673923     0.80800
N1310       N  0.68995257  0.21996582  0.49072027    -0.77500
C1311       C  0.71700358  0.25214459  0.49770018     0.83300
N1312       N  0.71287697  0.27039427  0.52052847    -0.77400
C1313       C  0.68285412  0.25676614  0.53689176     0.83400
N1314       N  0.65631295  0.22380549  0.53055887    -0.79100
C1315       C  0.91757894  0.33949708  0.45035811     0.80800
N1316       N  0.92244433  0.31904599  0.42946708    -0.77500
C1317       C  0.89529158  0.28683742  0.42227939     0.83300
N1318       N  0.86345282  0.27643062  0.43458598    -0.77400
C1319       C  0.85781317  0.29698469  0.45427658     0.83400
N1320       N  0.88512681  0.32837556  0.46229021    -0.79100
C1321       C  0.58101432  0.39018613  0.52988905     0.80800
N1322       N  0.59661025  0.38849269  0.55524891    -0.77500
C1323       C  0.59629617  0.35730926  0.56298247     0.83300
N1324       N  0.58144311  0.32881383  0.54505718    -0.77400
C1325       C  0.56592897  0.33042670  0.51997815     0.83400
N1326       N  0.56596066  0.36117260  0.51255091    -0.79100
C1327       C  0.99683576  0.15381678  0.43402872     0.80800
N1328       N  0.51165240  0.18286240  0.44805151    -0.77500
C1329       C  0.01453354  0.21493876  0.44027509     0.83300
N1330       N  0.99709264  0.21482346  0.41592307    -0.77400
C1331       C  0.97990005  0.18468826  0.40015850     0.83400
N1332       N  0.97905164  0.15369113  0.40952016    -0.79100
C1333       C  0.56008934  0.05874047  0.48077469     0.02900
C1334       C  0.52375186  0.04466350  0.47924398     0.02900
C1335       C  0.00118429  0.00645955  0.48231197     0.02900
C1336       C  0.51671039  0.48345740  0.48133047     0.02900
C1337       C  0.55289867  0.49843175  0.48420183     0.02900
C1338       C  0.57392173  0.03509995  0.48245770     0.02900
C1339       C  0.83245616  0.32429395  0.76659943     0.80800
N1340       N  0.81011221  0.32413559  0.74597013    -0.77500
C1341       C  0.81505581  0.35565792  0.73362945     0.83300
N1342       N  0.84206587  0.38689217  0.74207135    -0.77400
C1343       C  0.86435250  0.38741715  0.76269086     0.83400
N1344       N  0.85915405  0.35594257  0.77489491    -0.79100
C1345       C  0.93894614  0.06919211  0.84091621     0.80800
N1346       N  0.95639621  0.07047093  0.86602368    -0.77500
C1347       C  0.96845659  0.04659469  0.87016819     0.83300
N1348       N  0.96166034  0.02082104  0.84990384    -0.77400
C1349       C  0.94330505  0.01850324  0.82547566     0.83400
N1350       N  0.93231549  0.04292648  0.82116401    -0.79100
C1351       C  0.74373888  0.00107969  0.79378189     0.80800
N1352       N  0.71236430  0.48533966  0.80729126    -0.77500
C1353       C  0.68578815  0.45297841  0.80014617     0.83300
N1354       N  0.69028648  0.43524336  0.77705567    -0.77400
C1355       C  0.72049401  0.44981806  0.76076868     0.83400
N1356       N  0.74651572  0.48284074  0.76741490    -0.79100
C1357       C  0.98735786  0.36059669  0.85293118     0.80800
N1358       N  0.51923145  0.37356346  0.83942951    -0.77500
C1359       C  0.54659524  0.40371594  0.84904915     0.83300
N1360       N  0.54102432  0.42276523  0.87025318    -0.77400
C1361       C  0.50894834  0.41198988  0.88244308     0.83400
N1362       N  0.98231511  0.37941247  0.87511419    -0.79100
C1363       C  0.69425127  0.14759761  0.86129929     0.80800
N1364       N  0.67658213  0.12775901  0.88595162    -0.77500
C1365       C  0.64849578  0.12992672  0.89692389     0.83300
N1366       N  0.63780871  0.15081901  0.88287901    -0.77400
C1367       C  0.65463609  0.17007395  0.85815462     0.83400
N1368       N  0.68289532  0.16829281  0.84747439    -0.79100
C1369       C  0.54388298  0.24596593  0.77826254     0.80800
N1370       N  0.55922735  0.23176728  0.79569649    -0.77500
C1371       C  0.59223316  0.23868004  0.78986901     0.83300
N1372       N  0.60990561  0.26028460  0.76659453    -0.77400
C1373       C  0.59542512  0.27466605  0.74863981     0.83400
N1374       N  0.56191242  0.26734767  0.75420418    -0.79100
C1375       C  0.85092602  0.20936090  0.81363947     0.02900
C1376       C  0.82814090  0.17232350  0.81692085     0.02900
C1377       C  0.84167647  0.14806864  0.81729056     0.02900
C1378       C  0.87808155  0.16109060  0.81594426     0.02900
C1379       C  0.90059982  0.19830024  0.81291827     0.02900
C1380       C  0.88698397  0.22222148  0.81418967     0.02900
Zr1381     Zr  0.52214803  0.01448806  0.04136335     2.17500
O1382       O  0.00240878  0.01518497  0.09284242    -0.50700
O1383       O  0.55998469  0.00234040  0.07365956    -0.73900
O1384       O  0.96713138  0.46074781  0.05798798    -0.80700
O1385       O  0.58194415  0.11714841  0.03623450    -0.82500
O1386       O  0.94910975  0.41855408  0.02237742    -0.78100
O1387       O  0.53580645  0.07205971  0.06099046    -0.89700
O1388       O  0.59238507  0.98393787  0.04649608    -0.75700
O1389       O  0.52556971  0.46737387  0.01445310    -0.85200
O1390       O  0.58044512  0.04271472  0.02219797    -0.84900
O1391       O  0.97721314  0.49241831  0.00399794    -0.71600
O1392       O  0.52772416  0.06239149  0.00942728    -0.83700
Zr1393     Zr  0.54828591  0.02517367  0.92570667     2.26400
Zr1394     Zr  0.98423295  0.44764845  0.97725346     2.06300
Zr1395     Zr  0.58592383  0.08998947  0.98955893     2.10000
Zr1396     Zr  0.58523472  0.99715949  0.99563105     1.78800
O1397       O  0.59173462  0.14914431  0.98101487    -0.92500
O1398       O  0.57581595  0.43709693  0.98992825    -0.40400
O1399       O  0.59173624  0.04474391  0.96281154    -0.77000
O1400       O  0.54245441  0.47686321  0.95653770    -0.95700
O1401       O  0.48764053  0.49580048  0.94430185    -0.89000
O1402       O  0.54371463  0.07139197  0.95135595    -0.91800
C1403       C  0.58231379  0.99095055  0.07119421     1.01900
C1404       C  0.55905827  0.10488583  0.05759898     1.14900
C1405       C  0.94683047  0.42947314  0.04849265     1.05600
O1406       O  0.47850448  0.38900465  0.98040497    -0.94000
O1407       O  0.98640424  0.42016460  0.92987359    -0.89700
O1408       O  0.52778556  0.46846362  0.90098826    -0.82900
C1409       C  0.50590224  0.43523759  0.90481247     1.12300
O1410       O  0.94997669  0.05187395  0.01145772    -0.96000
Zr1411     Zr  0.98453106  0.04163455  0.97338158     1.88900
O1412       O  0.51097940  0.03800350  0.89360026    -0.72600
O1413       O  0.92525171  0.42543350  0.96046469    -0.51900
O1414       O  0.92189960  0.50053293  0.96044638    -0.96500
O1415       O  0.99187240  0.10211498  0.97177602    -0.53800
O1416       O  0.97466953  0.05158913  0.92225006    -0.73100
C1417       C  0.98559949  0.04531453  0.89759809     0.99200
O1418       O  0.57514661  0.02981476  0.87656686    -0.61900
O1419       O  0.64484010  0.11392423  0.00720671    -0.56700
O1420       O  0.60501806  0.07302373  0.91048686    -0.93400
O1421       O  0.62141239  0.11689654  0.94457638    -0.91800
O1422       O  0.64687924  0.03711390  0.00221862    -0.92200
O1423       O  0.62183917  0.98675226  0.96000418    -0.91000
C1424       C  0.62458068  0.10478701  0.91931959     1.18100
H1425       H  0.59723346  0.05243949  0.03763440     0.34000
H1426       H  0.54784323  0.46021795  0.94640334     0.44900
H1427       H  0.54828451  0.09124966  0.93792550     0.38400
H1428       H  0.95410594  0.48242997  0.01280032     0.34900
H1429       H  0.59682797  0.43811060  0.99845301     0.26700
H1430       H  0.91538325  0.39909820  0.96052279     0.32600
H1431       H  0.92240308  0.48834464  0.94195901     0.38500
H1432       H  0.65246397  0.02884284  0.02088563     0.33000
H1433       H  0.65757192  0.13837324  0.99838038     0.31800
H1434       H  0.61646529  0.16599327  0.98447063     0.33500
H1435       H  0.00362410  0.11253275  0.95237141     0.32500
H1436       H  0.61884044  0.50379279  0.93926579     0.36500
H1437       H  0.58531954  0.01351694  0.87714743     0.29200
H1438       H  0.99996065  0.99373342  0.10367448     0.33500
H1439       H  0.93261089  0.05570488  0.00066892     0.36300
H1440       H  0.64302202  0.11769876  0.02870311     0.28900
H1441       H  0.54945679  0.51926274  0.86171138     0.41800
H1442       H  0.49045748  0.38958264  0.99891147     0.31800
H1443       H  0.55683277  0.42234535  0.00440363     0.39500
H1444       H  0.51305708  0.11718050  0.98676925     0.31300
H1445       H  0.91280302  0.42993803  0.97709760     0.31400
H1446       H  0.97849107  0.01165094  0.09145829     0.31600
Zr1447     Zr  0.70761182  0.34866313  0.70621491     2.17500
O1448       O  0.70105148  0.32293120  0.75614482    -0.50700
O1449       O  0.71436549  0.39801836  0.73749327    -0.73900
O1450       O  0.75938937  0.34748586  0.72358902    -0.80700
O1451       O  0.60588346  0.30704606  0.70217475    -0.82500
O1452       O  0.80074122  0.36857627  0.68637241    -0.78100
O1453       O  0.65060378  0.30855943  0.72751519    -0.89700
O1454       O  0.72917186  0.44784179  0.70918794    -0.75700
O1455       O  0.75168791  0.39865542  0.67893837    -0.85200
O1456       O  0.67849492  0.37838950  0.68592503    -0.84900
O1457       O  0.73007830  0.32328551  0.66974610    -0.71600
O1458       O  0.66320802  0.30565360  0.67605137    -0.83700
Zr1459     Zr  0.70056332  0.36039947  0.59078683     2.26400
Zr1460     Zr  0.77333610  0.37386279  0.64124190     2.06300
Zr1461     Zr  0.63471035  0.33604668  0.65494967     2.10000
Zr1462     Zr  0.72223891  0.42792567  0.65827249     1.78800
O1463       O  0.58207183  0.28158971  0.64343162    -0.92500
O1464       O  0.78049469  0.47903990  0.65888061    -0.40400
O1465       O  0.67824388  0.38616565  0.62677214    -0.77000
O1466       O  0.74459299  0.40451074  0.62107367    -0.95700
O1467       O  0.72944084  0.33051210  0.61075766    -0.89000
O1468       O  0.65626977  0.31073373  0.61783552    -0.91800
C1469       C  0.72248598  0.43108850  0.73423053     1.01900
C1470       C  0.61822393  0.29856025  0.72453723     1.14900
C1471       C  0.79007916  0.35693577  0.71310625     1.05600
O1472       O  0.82996455  0.42652730  0.64538474    -0.94000
O1473       O  0.80019605  0.40121038  0.59216437    -0.89700
O1474       O  0.75495628  0.39422263  0.56429553    -0.82900
C1475       C  0.78738586  0.40636732  0.56826428     1.12300
O1476       O  0.68034473  0.23788718  0.67674850    -0.96000
Zr1477     Zr  0.68540370  0.28144574  0.63894843     1.88900
O1478       O  0.69236252  0.31007572  0.55994179    -0.72600
O1479       O  0.79916214  0.33693332  0.62605745    -0.51900
O1480       O  0.72521129  0.25801640  0.62821399    -0.96500
O1481       O  0.62836859  0.22859179  0.64367775    -0.53800
O1482       O  0.67449022  0.25991946  0.58850099    -0.73100
C1483       C  0.68209702  0.27647427  0.56334663     0.99200
O1484       O  0.70649998  0.39108423  0.54315610    -0.61900
O1485       O  0.60504117  0.36756225  0.67462365    -0.56700
O1486       O  0.64820659  0.35946547  0.57424009    -0.93400
O1487       O  0.60972290  0.34987012  0.61236361    -0.91800
O1488       O  0.68370474  0.45382546  0.66423931    -0.92200
O1489       O  0.73104374  0.47207749  0.61961956    -0.91000
C1490       C  0.61965546  0.35636499  0.58494926     1.18100
H1491       H  0.66751271  0.38576679  0.70107064     0.34000
H1492       H  0.76065334  0.42566364  0.60983482     0.44900
H1493       H  0.63804248  0.29513990  0.60502414     0.38400
H1494       H  0.74029384  0.31020856  0.67899485     0.34900
H1495       H  0.77725134  0.49857995  0.66749422     0.26700
H1496       H  0.82446801  0.35275792  0.62769711     0.32600
H1497       H  0.71077284  0.23453614  0.61910912     0.38500
H1498       H  0.67206120  0.44510032  0.68396629     0.33000
H1499       H  0.61721528  0.39153916  0.66487996     0.31800
H1500       H  0.56289369  0.28592267  0.65039371     0.33500
H1501       H  0.62637604  0.21452097  0.62574555     0.32500
H1502       H  0.71384768  0.45843841  0.60450010     0.36500
H1503       H  0.68860469  0.37353522  0.53020486     0.29200
H1504       H  0.71974372  0.34140973  0.76790123     0.33500
H1505       H  0.67245804  0.24503436  0.69500916     0.36300
H1506       H  0.58190945  0.35582135  0.66565872     0.28900
H1507       H  0.69949787  0.40963303  0.54693118     0.41800
H1508       H  0.82478760  0.44646843  0.64846398     0.31800
H1509       H  0.79242726  0.47288958  0.67442017     0.39500
H1510       H  0.61165657  0.23763350  0.64088061     0.31300
H1511       H  0.79293930  0.31904885  0.64242285     0.31400
H1512       H  0.70695811  0.30332509  0.75429351     0.31600
C1513       C  0.49750251  0.23534593  0.81646953     0.24200
C1514       C  0.50779987  0.23744405  0.78624065    -0.23900
C1515       C  0.98391303  0.22856829  0.76693903     0.19100
C1516       C  0.94882859  0.21584516  0.77493938     0.24200
C1517       C  0.93802319  0.21231513  0.80501871    -0.23800
C1518       C  0.96282553  0.22269681  0.82699566     0.19100
F1519       F  0.95303070  0.22039371  0.85609039    -0.13800
F1520       F  0.52124105  0.24518667  0.83805803    -0.16200
F1521       F  0.92514202  0.20630192  0.75332017    -0.16200
F1522       F  0.99325713  0.22988319  0.73782295    -0.13800
C1523       C  0.78518649  0.15967015  0.85824477     0.24200
C1524       C  0.79189599  0.16056829  0.82749340    -0.23900
C1525       C  0.76528748  0.15423816  0.80786343     0.19100
C1526       C  0.73272021  0.14815147  0.81894845     0.24200
C1527       C  0.72634457  0.14817095  0.84979917    -0.23800
C1528       C  0.75267169  0.15328095  0.86932634     0.19100
F1529       F  0.74783914  0.15492472  0.89903929    -0.13800
F1530       F  0.81096923  0.16709639  0.87752476    -0.16200
F1531       F  0.70759795  0.14297046  0.79955109    -0.16200
F1532       F  0.77119488  0.15528270  0.77807309    -0.13800
C1533       C  0.59472987  0.20676065  0.83605255     0.24200
C1534       C  0.60900627  0.22263725  0.80812766    -0.23900
C1535       C  0.63953296  0.22270471  0.79752076     0.19100
C1536       C  0.65500707  0.20683372  0.81415441     0.24200
C1537       C  0.64024113  0.19007030  0.84177015    -0.23800
C1538       C  0.61012099  0.19074269  0.85268446     0.19100
F1539       F  0.59486731  0.17540914  0.87931988    -0.13800
F1540       F  0.56566349  0.20642398  0.84742934    -0.16200
F1541       F  0.68396699  0.20715054  0.80252555    -0.16200
F1542       F  0.65402768  0.23693343  0.77041866    -0.13800
C1543       C  0.93603875  0.30112394  0.86305629     0.24200
C1544       C  0.95837001  0.32735998  0.84240800    -0.23900
C1545       C  0.95504588  0.32001690  0.81185362     0.19100
C1546       C  0.93062099  0.28625010  0.80222244     0.24200
C1547       C  0.90979995  0.25947326  0.82306889    -0.23800
C1548       C  0.91216272  0.26730301  0.85346599     0.19100
F1549       F  0.89213440  0.24162079  0.87396634    -0.13800
F1550       F  0.93902345  0.30741345  0.89264278    -0.16200
F1551       F  0.92792748  0.27931950  0.77276867    -0.16200
F1552       F  0.97578884  0.34539712  0.79144129    -0.13800
C1553       C  0.78922005  0.06215913  0.77699090     0.24200
C1554       C  0.77085173  0.03779441  0.80037729    -0.23900
C1555       C  0.77734654  0.04947966  0.82989429     0.19100
C1556       C  0.80076898  0.08527389  0.83577754     0.24200
C1557       C  0.81801150  0.10968561  0.81224395    -0.23800
C1558       C  0.81234896  0.09780056  0.78290292     0.19100
F1559       F  0.82877606  0.12109842  0.75985272    -0.13800
F1560       F  0.78381185  0.05187837  0.74828040    -0.16200
F1561       F  0.80642253  0.09611981  0.86430772    -0.16200
F1562       F  0.76146230  0.02610714  0.85299849    -0.13800
C1563       C  0.64145207  0.46366249  0.82765363     0.24200
C1564       C  0.65084762  0.43951590  0.81456237    -0.23900
C1565       C  0.62560377  0.40309482  0.81338716     0.19100
C1566       C  0.59177109  0.39134161  0.82465636     0.24200
C1567       C  0.58232638  0.41575427  0.83709711    -0.23800
C1568       C  0.60772846  0.45195631  0.83870175     0.19100
F1569       F  0.59985701  0.47659011  0.85020937    -0.13800
F1570       F  0.66440861  0.49914385  0.82872038    -0.16200
F1571       F  0.56852301  0.35591126  0.82392915    -0.16200
F1572       F  0.63358513  0.37865895  0.80151344    -0.13800
C1573       C  0.91095509  0.10605339  0.85806161     0.24200
C1574       C  0.92522851  0.09451368  0.83506067    -0.23900
C1575       C  0.92356854  0.10487914  0.80554049     0.19100
C1576       C  0.90735033  0.12545033  0.79911497     0.24200
C1577       C  0.89292441  0.13670898  0.82205047    -0.23800
C1578       C  0.89497820  0.12693912  0.85157281     0.19100
F1579       F  0.88150219  0.13779322  0.87418425    -0.13800
F1580       F  0.91139048  0.09616600  0.88670367    -0.16200
F1581       F  0.90562999  0.13423565  0.77042712    -0.16200
F1582       F  0.93806800  0.09538057  0.78277516    -0.13800
C1583       C  0.82835677  0.26400547  0.76103677     0.24200
C1584       C  0.82924197  0.29073285  0.77959251    -0.23900
C1585       C  0.83235700  0.28761549  0.81041870     0.19100
C1586       C  0.83628803  0.25925699  0.82224809     0.24200
C1587       C  0.83818928  0.23418552  0.80331821    -0.23800
C1588       C  0.83323244  0.23625205  0.77276466     0.19100
F1589       F  0.83569651  0.21276760  0.75394839    -0.13800
F1590       F  0.82599586  0.26655206  0.73120796    -0.16200
F1591       F  0.83996187  0.25733036  0.85191901    -0.16200
F1592       F  0.83283328  0.31282157  0.82894553    -0.13800
C1593       C  0.92954416  0.45524029  0.81420046     0.24200
C1594       C  0.93047692  0.48709740  0.80406483    -0.23900
C1595       C  0.91520724  0.48679568  0.77684826     0.19100
C1596       C  0.89592602  0.45477797  0.76211941     0.24200
C1597       C  0.89138223  0.42213181  0.77421361    -0.23800
C1598       C  0.91047458  0.42320371  0.79931619     0.19100
F1599       F  0.90937599  0.39303166  0.81063510    -0.13800
F1600       F  0.94495546  0.45423743  0.83970486    -0.16200
F1601       F  0.88053636  0.45583131  0.73661703    -0.16200
F1602       F  0.91758366  0.51728746  0.76493827    -0.13800
C1603       C  0.49690718  0.09502965  0.42610735     0.24200
C1604       C  0.99695040  0.12133332  0.44587416    -0.23900
C1605       C  0.00063150  0.11811403  0.47668722     0.19100
C1606       C  0.00769096  0.09172088  0.48786088     0.24200
C1607       C  0.51002460  0.06805265  0.46840722    -0.23800
C1608       C  0.50480608  0.06937098  0.43783716     0.19100
F1609       F  0.50983158  0.04734202  0.41910841    -0.13800
F1610       F  0.49443535  0.09726485  0.39627084    -0.16200
F1611       F  0.01288754  0.09042603  0.51732469    -0.16200
F1612       F  0.99840316  0.14126134  0.49604549    -0.13800
C1613       C  0.56382570  0.46861075  0.52709654     0.24200
C1614       C  0.56677113  0.47574233  0.49630295    -0.23900
C1615       C  0.57980568  0.45880469  0.47748822     0.19100
C1616       C  0.58643380  0.43222722  0.48890397     0.24200
C1617       C  0.58125456  0.42318192  0.51951326    -0.23800
C1618       C  0.57136988  0.44267800  0.53872605     0.19100
F1619       F  0.56615133  0.43455879  0.56825460    -0.13800
F1620       F  0.55186163  0.48551780  0.54564143    -0.16200
F1621       F  0.59645053  0.41415633  0.46980786    -0.16200
F1622       F  0.58447204  0.46675718  0.44794178    -0.13800
C1623       C  0.52680102  0.29672824  0.47908122     0.24200
C1624       C  0.55204256  0.30034657  0.49945017    -0.23900
C1625       C  0.56486524  0.27578516  0.49914496     0.19100
C1626       C  0.55250181  0.24804714  0.47907120     0.24200
C1627       C  0.52737588  0.24450628  0.45862775    -0.23800
C1628       C  0.51467687  0.26916125  0.45877656     0.19100
F1629       F  0.98879376  0.26490696  0.44374982    -0.13800
F1630       F  0.51313289  0.31934280  0.47920144    -0.16200
F1631       F  0.56549224  0.22484167  0.47953491    -0.16200
F1632       F  0.59005236  0.27895623  0.51771976    -0.13800
C1633       C  0.97148847  0.39814100  0.43830629     0.24200
C1634       C  0.94643579  0.37467629  0.45927150    -0.23900
C1635       C  0.94725853  0.38643045  0.48861518     0.19100
C1636       C  0.97132673  0.42132527  0.49641125     0.24200
C1637       C  0.99489857  0.44532027  0.47503075    -0.23800
C1638       C  0.99522882  0.43322821  0.44606335     0.19100
F1639       F  0.51841275  0.45408973  0.42562683    -0.13800
F1640       F  0.97161364  0.38797048  0.40982602    -0.16200
F1641       F  0.97085252  0.43208707  0.52461012    -0.16200
F1642       F  0.92439666  0.36416411  0.50978147    -0.13800
C1643       C  0.61498650  0.14345104  0.52271732     0.24200
C1644       C  0.63151545  0.16915897  0.49980950    -0.23900
C1645       C  0.62313468  0.15868988  0.47012801     0.19100
C1646       C  0.59896777  0.12317224  0.46360901     0.24200
C1647       C  0.58328862  0.09743969  0.48661584    -0.23800
C1648       C  0.59146828  0.10796904  0.51614565     0.19100
F1649       F  0.57721782  0.08340081  0.53869878    -0.13800
F1650       F  0.62301781  0.15219081  0.55146259    -0.16200
F1651       F  0.59152333  0.11375349  0.43490225    -0.16200
F1652       F  0.63836386  0.18288603  0.44743859    -0.13800
C1653       C  0.77920893  0.29984977  0.48877405     0.24200
C1654       C  0.75224166  0.26483354  0.48394783    -0.23900
C1655       C  0.76040218  0.24094768  0.46876117     0.19100
C1656       C  0.79451832  0.25133013  0.45946264     0.24200
C1657       C  0.82166861  0.28604340  0.46492108    -0.23800
C1658       C  0.81343767  0.31023376  0.47954246     0.19100
F1659       F  0.83840628  0.34406402  0.48513025    -0.13800
F1660       F  0.77275503  0.32420255  0.50286869    -0.16200
F1661       F  0.80083360  0.22659248  0.44589234    -0.16200
F1662       F  0.73576229  0.20672426  0.46400311    -0.13800
C1663       C  0.63600498  0.05347621  0.49381958     0.24200
C1664       C  0.61065937  0.04800613  0.47318750    -0.23900
C1665       C  0.61962071  0.05264227  0.44267311     0.19100
C1666       C  0.65316511  0.06115410  0.43278357     0.24200
C1667       C  0.67808229  0.06466343  0.45332010    -0.23800
C1668       C  0.66941372  0.06129540  0.48393509     0.19100
F1669       F  0.69325358  0.06513887  0.50423864    -0.13800
F1670       F  0.62820310  0.05057394  0.52338594    -0.16200
F1671       F  0.66055308  0.06352724  0.40313926    -0.16200
F1672       F  0.59529997  0.04740103  0.42240359    -0.13800
C1673       C  0.93957888  0.47706980  0.46734944     0.24200
C1674       C  0.96565966  0.49377195  0.48802832    -0.23900
C1675       C  0.95367831  0.99442091  0.51945102     0.19100
C1676       C  0.91858355  0.98071977  0.52765727     0.24200
C1677       C  0.89576461  0.46781897  0.50564617    -0.23800
C1678       C  0.90472063  0.46408282  0.47615471     0.19100
F1679       F  0.87965666  0.44808151  0.45592681    -0.13800
F1680       F  0.94792441  0.47396876  0.43871344    -0.16200
F1681       F  0.90966224  0.98307690  0.55629828    -0.16200
F1682       F  0.97793090  0.00850263  0.54058461    -0.13800
C1683       C  0.79266622  0.02061209  0.44598818     0.24200
C1684       C  0.76616918  0.02541729  0.46005192    -0.23900
C1685       C  0.75214199  0.00793433  0.48758172     0.19100
C1686       C  0.77317905  0.49772147  0.50629676     0.24200
C1687       C  0.79891830  0.49228436  0.49149729    -0.23800
C1688       C  0.80569552  0.00009088  0.45970842     0.19100
F1689       F  0.83128761  0.99634549  0.44539764    -0.13800
F1690       F  0.80611180  0.03570571  0.41885627    -0.16200
F1691       F  0.76153559  0.48436457  0.53419948    -0.16200
F1692       F  0.72666694  0.01166320  0.50212174    -0.13800
C1693       C  0.82078100  0.38719519  0.09870117     0.24200
C1694       C  0.84412612  0.38479483  0.11822476    -0.23900
C1695       C  0.83511732  0.37958373  0.14890918     0.19100
C1696       C  0.80324534  0.37608226  0.15954706     0.24200
C1697       C  0.77941067  0.37691007  0.13973419    -0.23800
C1698       C  0.78874167  0.38296682  0.10930276     0.19100
F1699       F  0.76561458  0.38212941  0.08944132    -0.13800
F1700       F  0.82769306  0.39075617  0.06896520    -0.16200
F1701       F  0.79507997  0.37046710  0.18904962    -0.16200
F1702       F  0.85685584  0.37720109  0.16862891    -0.13800
C1703       C  0.57225074  0.29176492  0.14028448     0.24200
C1704       C  0.55975244  0.28865158  0.16998618    -0.23900
C1705       C  0.58382149  0.30322501  0.19258788     0.19100
C1706       C  0.61955509  0.32016211  0.18569532     0.24200
C1707       C  0.63184504  0.32311391  0.15610495    -0.23800
C1708       C  0.60793801  0.30868662  0.13346874     0.19100
F1709       F  0.61918933  0.31071057  0.10482390    -0.13800
F1710       F  0.54980854  0.27862336  0.11771422    -0.16200
F1711       F  0.64233551  0.33336252  0.20799448    -0.16200
F1712       F  0.57281843  0.30269792  0.22109295    -0.13800
C1713       C  0.92436583  0.28984607  0.15058377     0.24200
C1714       C  0.96080533  0.30452239  0.15103094    -0.23900
C1715       C  0.98193564  0.33831309  0.13764075     0.19100
C1716       C  0.96709591  0.35712044  0.12443282     0.24200
C1717       C  0.93076884  0.34256264  0.12405086    -0.23800
C1718       C  0.90948668  0.30889511  0.13744901     0.19100
F1719       F  0.87436141  0.29399746  0.13711563    -0.13800
F1720       F  0.90305842  0.25671053  0.16224422    -0.16200
F1721       F  0.98851371  0.39029372  0.11279899    -0.16200
F1722       F  0.51318002  0.34535451  0.13191940    -0.13800
C1723       C  0.77779909  0.47494578  0.19031098     0.24200
C1724       C  0.79666550  0.50002445  0.16747063    -0.23900
C1725       C  0.79158236  0.48859611  0.13777502     0.19100
C1726       C  0.76863201  0.45285213  0.13119296     0.24200
C1727       C  0.75150828  0.42755264  0.15416698    -0.23800
C1728       C  0.75621009  0.43892519  0.18374726     0.19100
F1729       F  0.74028331  0.41484331  0.20640260    -0.13800
F1730       F  0.78142953  0.48488304  0.21913028    -0.16200
F1731       F  0.76335690  0.44296123  0.10242835    -0.16200
F1732       F  0.80869975  0.51212742  0.11503278    -0.13800
C1733       C  0.61210058  0.21826000  0.15281460     0.24200
C1734       C  0.61019388  0.20996087  0.12244642    -0.23900
C1735       C  0.63569446  0.23430911  0.10233661     0.19100
C1736       C  0.66092566  0.26752008  0.11199594     0.24200
C1737       C  0.66144352  0.27667796  0.14194241    -0.23800
C1738       C  0.63776135  0.25140228  0.16252739     0.19100
F1739       F  0.63853144  0.25950851  0.19167262    -0.13800
F1740       F  0.58874674  0.19452959  0.17295612    -0.16200
F1741       F  0.68345849  0.29184414  0.09171515    -0.16200
F1742       F  0.63459280  0.22717034  0.07293377    -0.13800
C1743       C  0.95619597  0.10214950  0.10941037     0.24200
C1744       C  0.98543605  0.12766860  0.12443986    -0.23900
C1745       C  0.97991191  0.14179202  0.15086541     0.19100
C1746       C  0.94635379  0.12940124  0.16279612     0.24200
C1747       C  0.91725089  0.10250303  0.14858847    -0.23800
C1748       C  0.92261628  0.08966918  0.12139930     0.19100
F1749       F  0.89540006  0.06493047  0.10626506    -0.13800
F1750       F  0.95983128  0.08902521  0.08295693    -0.16200
F1751       F  0.94281936  0.14291041  0.18907460    -0.16200
F1752       F  0.50327963  0.17603598  0.15794356    -0.13800
C1753       C  0.73639134  0.27047304  0.20661506     0.24200
C1754       C  0.74099999  0.24690255  0.18780224    -0.23900
C1755       C  0.74266320  0.25263822  0.15683645     0.19100
C1756       C  0.73852841  0.28077238  0.14482403     0.24200
C1757       C  0.73185977  0.30300955  0.16364348    -0.23800
C1758       C  0.73138782  0.29798655  0.19460317     0.19100
F1759       F  0.72397399  0.31854700  0.21316499    -0.13800
F1760       F  0.73376376  0.26500569  0.23651853    -0.16200
F1761       F  0.73918273  0.28507877  0.11490513    -0.16200
F1762       F  0.74702544  0.23009472  0.13823417    -0.13800
C1763       C  0.66681788  0.41397081  0.16507470     0.24200
C1764       C  0.67661538  0.39912449  0.14156832    -0.23900
C1765       C  0.66846569  0.40399515  0.11240171     0.19100
C1766       C  0.65155544  0.42422332  0.10680560     0.24200
C1767       C  0.64277575  0.44024681  0.13032627    -0.23800
C1768       C  0.65014437  0.43425470  0.15960024     0.19100
F1769       F  0.64048908  0.44739371  0.18323617    -0.13800
F1770       F  0.67279014  0.40822971  0.19349608    -0.16200
F1771       F  0.64445924  0.42866906  0.07839312    -0.16200
F1772       F  0.67672376  0.38888663  0.08932512    -0.13800
C1773       C  0.64272812  0.08246717  0.15079156     0.24200
C1774       C  0.64183765  0.05052425  0.16057035    -0.23900
C1775       C  0.65858423  0.05087538  0.18691233     0.19100
C1776       C  0.67928149  0.08295978  0.20097134     0.24200
C1777       C  0.68316224  0.11559563  0.18944702    -0.23800
C1778       C  0.66289025  0.11456042  0.16524072     0.19100
F1779       F  0.66356044  0.14476259  0.15451997    -0.13800
F1780       F  0.62586295  0.08338330  0.12619325    -0.16200
F1781       F  0.69632088  0.08184173  0.22537704    -0.16200
F1782       F  0.65604396  0.02023787  0.19866268    -0.13800
C1783       C  0.63170775  0.96764451  0.12570794     0.80800
N1784       N  0.63933382  0.99430909  0.14517008    -0.77500
C1785       C  0.62588158  0.51679326  0.14067624     0.83300
N1786       N  0.60582986  0.51394637  0.11732681    -0.77400
C1787       C  0.60007072  0.98939899  0.09817670     0.83400
N1788       N  0.61266138  0.96573390  0.10147788    -0.79100
C1789       C  0.73899328  0.71180804  0.19880796     0.80800
N1790       N  0.71407059  0.67999284  0.18905381    -0.77500
C1791       C  0.70990843  0.64851988  0.20032747     0.83300
N1792       N  0.73152551  0.64914988  0.22166476    -0.77400
C1793       C  0.75658084  0.68070514  0.23184622     0.83400
N1794       N  0.76046808  0.71218020  0.22032326    -0.79100
C1795       C  0.57952555  0.67660805  0.11233171     0.80800
N1796       N  0.58326172  0.65622777  0.09072032    -0.77500
C1797       C  0.55465944  0.62697851  0.08090376     0.83300
N1798       N  0.52284316  0.61907737  0.09202172    -0.77400
C1799       C  0.51860038  0.63964974  0.11261871     0.83400
N1800       N  0.54719038  0.66821054  0.12302678    -0.79100
C1801       C  0.82368025  0.53695589  0.17452672     0.80800
N1802       N  0.85405783  0.55225146  0.15831727    -0.77500
C1803       C  0.88036646  0.58495690  0.16505718     0.83300
N1804       N  0.87565904  0.60268963  0.18796197    -0.77400
C1805       C  0.84570738  0.58800254  0.20452313     0.83400
N1806       N  0.81990107  0.55459697  0.19834758    -0.79100
C1807       C  0.52421535  0.78096301  0.17967278     0.80800
N1808       N  0.00641424  0.75615780  0.20202585    -0.77500
C1809       C  0.97235962  0.74743901  0.20666690     0.83300
N1810       N  0.95757843  0.76112813  0.18820826    -0.77400
C1811       C  0.97554082  0.78296547  0.16511122     0.83400
N1812       N  0.50874038  0.79514065  0.16250769    -0.79100
C1813       C  0.87580977  0.88269567  0.10500490     0.80800
N1814       N  0.88723274  0.86142508  0.11805264    -0.77500
C1815       C  0.91639704  0.86133111  0.10726175     0.83300
N1816       N  0.93384864  0.88234820  0.08352178    -0.77400
C1817       C  0.92303689  0.90353380  0.07032408     0.83400
N1818       N  0.89419626  0.90425837  0.08126231    -0.79100
C1819       C  0.69321531  0.87559315  0.14934402     0.02900
C1820       C  0.72971471  0.88866098  0.14849111     0.02900
C1821       C  0.74302234  0.86404751  0.14843531     0.02900
C1822       C  0.71997948  0.82690263  0.15189713     0.02900
C1823       C  0.68394458  0.81412867  0.15117269     0.02900
C1824       C  0.67062791  0.83832495  0.15217135     0.02900
Zr1825     Zr  0.87612310  0.68057404  0.37342675     2.17500
O1826       O  0.87442540  0.66003111  0.42458966    -0.50700
O1827       O  0.88549971  0.73162645  0.40412595    -0.73900
O1828       O  0.92765369  0.67772740  0.38765423    -0.80700
O1829       O  0.77571125  0.63646390  0.37157034    -0.82500
O1830       O  0.96690993  0.69323181  0.34908938    -0.78100
O1831       O  0.82091082  0.63785551  0.39615569    -0.89700
O1832       O  0.90341242  0.78160747  0.37526249    -0.75700
O1833       O  0.92010328  0.72880642  0.34462915    -0.85200
O1834       O  0.84772846  0.71180322  0.35459368    -0.84900
O1835       O  0.89500517  0.65247238  0.33627436    -0.71600
O1836       O  0.82973537  0.63827315  0.34443779    -0.83700
Zr1837     Zr  0.86465855  0.69119943  0.25853403     2.26400
Zr1838     Zr  0.93835644  0.70143993  0.30650528     2.06300
Zr1839     Zr  0.80184267  0.66984294  0.32493854     2.10000
Zr1840     Zr  0.89149848  0.75958233  0.32507587     1.78800
O1841       O  0.74141827  0.62380631  0.32206163    -0.92500
O1842       O  0.94957362  0.81095000  0.32143145    -0.40400
O1843       O  0.84514823  0.71833209  0.29538997    -0.77000
O1844       O  0.91124743  0.73416501  0.28708947    -0.95700
O1845       O  0.89195573  0.65934175  0.27763406    -0.89000
O1846       O  0.82043600  0.64294023  0.28709481    -0.91800
C1847       C  0.89584526  0.76524998  0.40050510     1.01900
C1848       C  0.78841685  0.62706045  0.39317814     1.14900
C1849       C  0.95704879  0.68401226  0.37625531     1.05600
O1850       O  0.99483720  0.75410549  0.31160615    -0.94000
O1851       O  0.96432788  0.72517576  0.25702255    -0.89700
O1852       O  0.91796857  0.71421564  0.22904010    -0.82900
C1853       C  0.95063823  0.72661801  0.23247411     1.12300
O1854       O  0.83896177  0.56775261  0.34592049    -0.96000
Zr1855     Zr  0.84808077  0.61152461  0.30677190     1.88900
O1856       O  0.85467827  0.64090002  0.22737936    -0.72600
O1857       O  0.96243308  0.66406595  0.28818242    -0.51900
O1858       O  0.88535925  0.58479766  0.29683859    -0.96500
O1859       O  0.78874944  0.56225375  0.31017185    -0.53800
O1860       O  0.83692848  0.59064357  0.25608720    -0.73100
C1861       C  0.84444821  0.60731752  0.23092443     0.99200
O1862       O  0.86911741  0.73443668  0.22028242    -0.61900
O1863       O  0.78257592  0.71097835  0.34397054    -0.56700
O1864       O  0.81055242  0.68454193  0.24017282    -0.93400
O1865       O  0.77413770  0.67536655  0.28008099    -0.91800
O1866       O  0.85202761  0.78417431  0.33245836    -0.92200
O1867       O  0.89904899  0.80454121  0.28767906    -0.91000
C1868       C  0.78205292  0.68042081  0.25212403     1.18100
H1869       H  0.83808472  0.72010934  0.37019324     0.34000
H1870       H  0.92746114  0.75393366  0.27458526     0.44900
H1871       H  0.80133651  0.62756468  0.27493902     0.38400
H1872       H  0.90452180  0.63847779  0.34505523     0.34900
H1873       H  0.94726985  0.83067806  0.33081301     0.26700
H1874       H  0.98791005  0.67951392  0.28879304     0.32600
H1875       H  0.89755135  0.59574336  0.27768210     0.38500
H1876       H  0.84490794  0.77985882  0.35375967     0.33000
H1877       H  0.76561687  0.71019612  0.32951419     0.31800
H1878       H  0.72786087  0.63549980  0.32906144     0.33500
H1879       H  0.77762887  0.56445948  0.29199869     0.32500
H1880       H  0.89770557  0.79293720  0.26844172     0.36500
H1881       H  0.85616101  0.74619052  0.22858150     0.29200
H1882       H  0.89537242  0.67870676  0.43403826     0.33500
H1883       H  0.83387083  0.54541398  0.33557880     0.36300
H1884       H  0.76837801  0.69884049  0.36207083     0.28900
H1885       H  0.89349732  0.75385151  0.21997257     0.41800
H1886       H  0.99216486  0.77405374  0.30298512     0.31800
H1887       H  0.96331417  0.80526569  0.33548387     0.39500
H1888       H  0.77747705  0.56881870  0.32646774     0.31300
H1889       H  0.95690021  0.64579000  0.30408640     0.31400
H1890       H  0.87804003  0.63884091  0.42339714     0.31600
C1891       C  0.85666644  0.95661504  0.51389696     0.80800
N1892       N  0.84116249  0.97134594  0.49720780    -0.77500
C1893       C  0.80837427  0.96478528  0.50390598     0.83300
N1894       N  0.79104220  0.94267821  0.52719373    -0.77400
C1895       C  0.80582035  0.92769594  0.54436777     0.83400
N1896       N  0.83921391  0.93519069  0.53809256    -0.79100
C1897       C  0.71434529  0.57243219  0.44558061     0.79600
N1898       N  0.72680044  0.55238210  0.45901493    -0.77500
C1899       C  0.75824253  0.55596780  0.45066148     0.83300
N1900       N  0.77731691  0.58033642  0.42920146    -0.77400
C1901       C  0.76535547  0.60046832  0.41548186     0.83400
N1902       N  0.73350185  0.59626555  0.42337276    -0.79100
C1903       C  0.65681394  0.70403799  0.51122647     0.80800
N1904       N  0.68848319  0.71713282  0.49717278    -0.77500
C1905       C  0.71565181  0.74869946  0.50516770     0.83300
N1906       N  0.71045987  0.76752520  0.52690441    -0.77400
C1907       C  0.67937340  0.75503954  0.54139260     0.83400
N1908       N  0.65259853  0.72256411  0.53421651    -0.79100
C1909       C  0.91583106  0.83633932  0.45624251     0.80800
N1910       N  0.92055752  0.81722428  0.43403258    -0.77500
C1911       C  0.89376442  0.78499496  0.42642028     0.83300
N1912       N  0.86214787  0.77300937  0.43993287    -0.77400
C1913       C  0.85653285  0.79226531  0.46104531     0.83400
N1914       N  0.88364127  0.82376457  0.46920323    -0.79100
C1915       C  0.57879723  0.88993744  0.53358610     0.80800
N1916       N  0.59437755  0.88831258  0.55899234    -0.77500
C1917       C  0.59305115  0.85679500  0.56737016     0.83300
N1918       N  0.57757886  0.82801529  0.54976418    -0.77400
C1919       C  0.56222070  0.82968877  0.52457759     0.83400
N1920       N  0.56292907  0.86060413  0.51674766    -0.79100
C1921       C  0.99809815  0.65372084  0.43176358     0.80800
N1922       N  0.51173763  0.68392244  0.45044438    -0.77500
C1923       C  0.01896200  0.71571032  0.43533837     0.83300
N1924       N  0.00093817  0.71500554  0.41126132    -0.77400
C1925       C  0.98176143  0.68409598  0.39708757     0.83400
N1926       N  0.97965723  0.65301992  0.40761919    -0.79100
C1927       C  0.55987581  0.55866129  0.47998164     0.02900
C1928       C  0.52362841  0.54382521  0.47740371     0.02900
C1929       C  0.00277216  0.50742795  0.48003069     0.02900
C1930       C  0.51541629  0.98378251  0.48360248     0.02900
C1931       C  0.55155970  0.99799486  0.48605179     0.02900
C1932       C  0.57453969  0.53574599  0.48153572     0.02900
C1933       C  0.83365687  0.82461710  0.76620353     0.80800
N1934       N  0.81152022  0.82476439  0.74554144    -0.77500
C1935       C  0.81634103  0.85644138  0.73366164     0.83300
N1936       N  0.84303731  0.88763401  0.74269823    -0.77400
C1937       C  0.86512671  0.88778070  0.76339475     0.83400
N1938       N  0.86004937  0.85610079  0.77503137    -0.79100
C1939       C  0.93812623  0.56913085  0.83907639     0.80800
N1940       N  0.95599792  0.57068941  0.86398732    -0.77500
C1941       C  0.96859905  0.54721896  0.86789517     0.83300
N1942       N  0.96190478  0.52152546  0.84754638    -0.77400
C1943       C  0.94308465  0.51887319  0.82334040     0.83400
N1944       N  0.93154042  0.54290035  0.81932311    -0.79100
C1945       C  0.74285980  0.50036832  0.79130887     0.80800
N1946       N  0.71325036  0.98581015  0.80990194    -0.77500
C1947       C  0.68705880  0.95307688  0.80293563     0.83300
N1948       N  0.69208901  0.93566005  0.77988216    -0.77400
C1949       C  0.72214888  0.95054954  0.76350448     0.83400
N1950       N  0.74775031  0.98367861  0.77001092    -0.79100
C1951       C  0.98678831  0.86044247  0.85376193     0.80800
N1952       N  0.51981626  0.87210688  0.84292780    -0.77500
C1953       C  0.54734426  0.90207366  0.85277533     0.83300
N1954       N  0.54149959  0.92152928  0.87339694    -0.77400
C1955       C  0.50925202  0.91136932  0.88489985     0.83400
N1956       N  0.98168688  0.87969985  0.87558941    -0.79100
C1957       C  0.69396843  0.64808349  0.86404834     0.80800
N1958       N  0.67479464  0.62701999  0.88770298    -0.77500
C1959       C  0.64680145  0.62964422  0.89839872     0.83300
N1960       N  0.63779360  0.65238199  0.88515160    -0.77400
C1961       C  0.65618736  0.67284701  0.86142584     0.83400
N1962       N  0.68421877  0.67053121  0.85089411    -0.79100
C1963       C  0.54575380  0.75083434  0.78617090     0.80800
N1964       N  0.56174866  0.73741352  0.80379690    -0.77500
C1965       C  0.59482805  0.74469453  0.79748388     0.83300
N1966       N  0.61195775  0.76571891  0.77381307    -0.77400
C1967       C  0.59692588  0.77939547  0.75581313     0.83400
N1968       N  0.56334850  0.77167628  0.76167373    -0.79100
C1969       C  0.84895946  0.70852230  0.81473238     0.02900
C1970       C  0.82648806  0.67130333  0.81788636     0.02900
C1971       C  0.84034908  0.64733898  0.81727068     0.02900
C1972       C  0.87677803  0.66087513  0.81578544     0.02900
C1973       C  0.89898043  0.69818061  0.81329166     0.02900
C1974       C  0.88510582  0.72184295  0.81512280     0.02900
Zr1975     Zr  0.51910655  0.51204535  0.04100924     2.17500
O1976       O  0.00252782  0.51519473  0.09208478    -0.50700
O1977       O  0.55760544  0.50072220  0.07291127    -0.73900
O1978       O  0.96861624  0.96013502  0.05879230    -0.80700
O1979       O  0.57885845  0.61503691  0.03722110    -0.82500
O1980       O  0.94785010  0.91971743  0.02181654    -0.78100
O1981       O  0.53312651  0.56956087  0.06215848    -0.89700
O1982       O  0.58911604  0.48138221  0.04558525    -0.75700
O1983       O  0.52706602  0.96883956  0.01531316    -0.85200
O1984       O  0.57723565  0.54184224  0.02166298    -0.84900
O1985       O  0.97802084  0.99340826  0.00534474    -0.71600
O1986       O  0.52333681  0.56004751  0.00986893    -0.83700
Zr1987     Zr  0.54575619  0.52472844  0.92527363     2.26400
Zr1988     Zr  0.98419777  0.94869616  0.97755603     2.06300
Zr1989     Zr  0.58148762  0.58903250  0.98960775     2.10000
Zr1990     Zr  0.58371963  0.49741875  0.99487397     1.78800
O1991       O  0.58257485  0.64603636  0.98094365    -0.92500
O1992       O  0.57688159  0.93634430  0.99707366    -0.40400
O1993       O  0.58885002  0.54494504  0.96270845    -0.77000
O1994       O  0.54365072  0.97728557  0.95764231    -0.95700
O1995       O  0.49028344  0.99809480  0.94478656    -0.89000
O1996       O  0.53934354  0.56956185  0.95143932    -0.91800
C1997       C  0.57955217  0.48890644  0.07037549     1.01900
C1998       C  0.55644770  0.60253561  0.05892763     1.14900
C1999       C  0.94704816  0.92975768  0.04852931     1.05600
O2000       O  0.47917407  0.89150228  0.98550829    -0.94000
O2001       O  0.98574679  0.92113502  0.92997786    -0.89700
O2002       O  0.52813062  0.96823958  0.90217666    -0.82900
C2003       C  0.50617222  0.93516738  0.90660801     1.12300
O2004       O  0.94223706  0.54342796  0.00726475    -0.96000
Zr2005     Zr  0.98265033  0.53969834  0.97126018     1.88900
O2006       O  0.50822165  0.53788627  0.89389850    -0.72600
O2007       O  0.92680417  0.92987657  0.95821039    -0.51900
O2008       O  0.92280482  0.00155936  0.96708878    -0.96500
O2009       O  0.99143668  0.60071175  0.97240002    -0.53800
O2010       O  0.97439359  0.55171224  0.92010660    -0.73100
C2011       C  0.98562653  0.54579532  0.89544445     0.99200
O2012       O  0.56953719  0.53257738  0.87452125    -0.61900
O2013       O  0.64172414  0.61724097  0.00464732    -0.56700
O2014       O  0.60377175  0.57199811  0.91180465    -0.93400
O2015       O  0.61693244  0.61650819  0.94476496    -0.91800
O2016       O  0.64460598  0.53420554  0.00656248    -0.92200
O2017       O  0.62544699  0.49736825  0.95832786    -0.91000
C2018       C  0.62195268  0.60424947  0.92023922     1.18100
H2019       H  0.59363853  0.55164221  0.03731896     0.34000
H2020       H  0.54837976  0.96004598  0.94774390     0.44900
H2021       H  0.54329476  0.58936370  0.93818484     0.38400
H2022       H  0.95501587  0.98376453  0.01431539     0.34900
H2023       H  0.59741174  0.93814151  0.00719520     0.26700
H2024       H  0.91631172  0.90357814  0.95668155     0.32600
H2025       H  0.91506055  0.01473453  0.95374896     0.38500
H2026       H  0.64453415  0.54605364  0.02535677     0.33000
H2027       H  0.64825107  0.64275196  0.00705390     0.31800
H2028       H  0.60635504  0.66435182  0.98587803     0.33500
H2029       H  0.00305678  0.61185546  0.95311626     0.32500
H2030       H  0.62101378  0.99892874  0.94146891     0.36500
H2031       H  0.58249413  0.51895526  0.87388766     0.29200
H2032       H  0.00043282  0.49378510  0.10272985     0.33500
H2033       H  0.93046420  0.55459566  0.99634739     0.36300
H2034       H  0.64101376  0.60825760  0.02511631     0.28900
H2035       H  0.55579499  0.01875076  0.86267925     0.41800
H2036       H  0.50302624  0.89505215  0.98248608     0.31800
H2037       H  0.55733247  0.92324897  0.01153003     0.39500
H2038       H  0.50716053  0.61370585  0.98546879     0.31300
H2039       H  0.91357913  0.93340438  0.97474882     0.31400
H2040       H  0.97851445  0.51147353  0.09116196     0.31600
Zr2041     Zr  0.70769048  0.84909505  0.70929348     2.17500
O2042       O  0.70294786  0.82162022  0.75826542    -0.50700
O2043       O  0.71579209  0.89882332  0.74038972    -0.73900
O2044       O  0.76045485  0.84841813  0.72489656    -0.80700
O2045       O  0.60576880  0.80883802  0.70799546    -0.82500
O2046       O  0.80071040  0.86903107  0.68680919    -0.78100
O2047       O  0.65139455  0.81213726  0.73312927    -0.89700
O2048       O  0.73078971  0.94860367  0.71196402    -0.75700
O2049       O  0.75092305  0.89879568  0.68117940    -0.85200
O2050       O  0.67787647  0.87860387  0.68981827    -0.84900
O2051       O  0.72864280  0.82325758  0.67207864    -0.71600
O2052       O  0.66163842  0.80604505  0.68041901    -0.83700
Zr2053     Zr  0.69738447  0.85984208  0.59404008     2.26400
Zr2054     Zr  0.77126544  0.87348033  0.64280923     2.06300
Zr2055     Zr  0.63280678  0.83632776  0.65969683     2.10000
Zr2056     Zr  0.72077897  0.92777829  0.66135093     1.78800
O2057       O  0.57890296  0.78158884  0.65148612    -0.92500
O2058       O  0.77858978  0.97956772  0.65835497    -0.40400
O2059       O  0.67591082  0.88591333  0.63061664    -0.77000
O2060       O  0.74217796  0.90412851  0.62345767    -0.95700
O2061       O  0.72600789  0.82969039  0.61368921    -0.89000
O2062       O  0.65334183  0.81081807  0.62199178    -0.91800
C2063       C  0.72420233  0.93192375  0.73702944     1.01900
C2064       C  0.61890267  0.80192818  0.73068585     1.14900
C2065       C  0.79086247  0.85773541  0.71372415     1.05600
O2066       O  0.82852591  0.92564646  0.64551714    -0.94000
O2067       O  0.79751136  0.90037078  0.59343068    -0.89700
O2068       O  0.75148793  0.89227426  0.56624228    -0.82900
C2069       C  0.78411911  0.90456658  0.56951003     1.12300
O2070       O  0.67373122  0.73937490  0.68342068    -0.96000
Zr2071     Zr  0.68221770  0.78119309  0.64281591     1.88900
O2072       O  0.68705701  0.80820003  0.56374493    -0.72600
O2073       O  0.79341478  0.83373198  0.62648251    -0.51900
O2074       O  0.71859048  0.75317473  0.63437370    -0.96500
O2075       O  0.62322996  0.73119245  0.64426708    -0.53800
O2076       O  0.67210802  0.75890944  0.59281733    -0.73100
C2077       C  0.67802009  0.77486343  0.56751005     0.99200
O2078       O  0.70363247  0.89128034  0.54677302    -0.61900
O2079       O  0.60425037  0.86916773  0.67883968    -0.56700
O2080       O  0.64553938  0.86020470  0.57814624    -0.93400
O2081       O  0.60664306  0.84800557  0.61652598    -0.91800
O2082       O  0.68125934  0.95180359  0.67108624    -0.92200
O2083       O  0.72676763  0.97191492  0.62373856    -0.91000
C2084       C  0.61664546  0.85580509  0.58914516     1.18100
H2085       H  0.66749679  0.88631944  0.70527947     0.34000
H2086       H  0.75795640  0.92498055  0.61175657     0.44900
H2087       H  0.63473334  0.79522676  0.60949985     0.38400
H2088       H  0.73911133  0.81019425  0.68092012     0.34900
H2089       H  0.77603924  0.99876047  0.66847034     0.26700
H2090       H  0.79117439  0.83286581  0.60464093     0.32600
H2091       H  0.73297117  0.76549440  0.61640443     0.38500
H2092       H  0.69606323  0.97599217  0.67886407     0.33000
H2093       H  0.61492933  0.89191632  0.66716910     0.31800
H2094       H  0.56083653  0.78454916  0.66273681     0.33500
H2095       H  0.61417862  0.73065404  0.62425351     0.32500
H2096       H  0.70711884  0.95878523  0.61047750     0.36500
H2097       H  0.68560489  0.87406081  0.53373579     0.29200
H2098       H  0.72179629  0.83979562  0.77010291     0.33500
H2099       H  0.66720165  0.71620194  0.67393276     0.36300
H2100       H  0.58021008  0.85593651  0.67179807     0.28900
H2101       H  0.69688938  0.90995672  0.55087021     0.41800
H2102       H  0.82587017  0.94047513  0.66110941     0.31800
H2103       H  0.79249799  0.97356862  0.67195810     0.39500
H2104       H  0.60993264  0.73911542  0.65737027     0.31300
H2105       H  0.81873086  0.84741775  0.62945124     0.31400
H2106       H  0.70903636  0.80226502  0.75533248     0.31600
C2107       C  0.49593800  0.73362371  0.82304867     0.24200
C2108       C  0.50884581  0.74068578  0.79328405    -0.23900
C2109       C  0.98291896  0.73204512  0.76771456     0.19100
C2110       C  0.94785870  0.71950215  0.77556754     0.24200
C2111       C  0.93638992  0.71249573  0.80552666    -0.23800
C2112       C  0.96039933  0.71888222  0.82759975     0.19100
F2113       F  0.94986329  0.71272496  0.85662882    -0.13800
F2114       F  0.51764033  0.73961382  0.84582316    -0.16200
F2115       F  0.92484696  0.71356017  0.75388450    -0.16200
F2116       F  0.99289480  0.73689066  0.73853284    -0.13800
C2117       C  0.78387406  0.65703370  0.85996258     0.24200
C2118       C  0.79036730  0.65894702  0.82908127    -0.23900
C2119       C  0.76354853  0.65289958  0.80986602     0.19100
C2120       C  0.73146924  0.64770939  0.82138220     0.24200
C2121       C  0.72542891  0.64738062  0.85231432    -0.23800
C2122       C  0.75153279  0.65082660  0.87152188     0.19100
F2123       F  0.74672711  0.65100291  0.90139817    -0.13800
F2124       F  0.80962516  0.66306446  0.87892125    -0.16200
F2125       F  0.70650245  0.64385131  0.80229660    -0.16200
F2126       F  0.76880934  0.65322538  0.78003170    -0.13800
C2127       C  0.60691639  0.72317108  0.84529503     0.24200
C2128       C  0.61174524  0.72803756  0.81439963    -0.23900
C2129       C  0.63329904  0.71695253  0.79933094     0.19100
C2130       C  0.64872375  0.70009667  0.81473505     0.24200
C2131       C  0.64323728  0.69431483  0.84561444    -0.23800
C2132       C  0.62254009  0.70646200  0.86081538     0.19100
F2133       F  0.61723737  0.70203102  0.89072720    -0.13800
F2134       F  0.58757330  0.73510725  0.86051430    -0.16200
F2135       F  0.66731670  0.68762377  0.79904161    -0.16200
F2136       F  0.63824041  0.72092303  0.76935259    -0.13800
C2137       C  0.93343481  0.80187848  0.86348393     0.24200
C2138       C  0.95765986  0.82710255  0.84311016    -0.23900
C2139       C  0.95553046  0.81886552  0.81271560     0.19100
C2140       C  0.93032491  0.78545578  0.80307306     0.24200
C2141       C  0.90791406  0.75938367  0.82377848    -0.23800
C2142       C  0.90917693  0.76806263  0.85396150     0.19100
F2143       F  0.88779578  0.74315030  0.87442765    -0.13800
F2144       F  0.93478189  0.80905689  0.89289331    -0.16200
F2145       F  0.92833149  0.77823907  0.77369253    -0.16200
F2146       F  0.97809623  0.84305106  0.79239456    -0.13800
C2147       C  0.78975409  0.56169043  0.77559252     0.24200
C2148       C  0.77025601  0.53699309  0.79847433    -0.23900
C2149       C  0.77549210  0.54846875  0.82815774     0.19100
C2150       C  0.79886286  0.58412597  0.83462874     0.24200
C2151       C  0.81704076  0.60890230  0.81156455    -0.23800
C2152       C  0.81263444  0.59732232  0.78209480     0.19100
F2153       F  0.82995513  0.62095461  0.75945276    -0.13800
F2154       F  0.78554076  0.55183696  0.74675476    -0.16200
F2155       F  0.80357720  0.59449255  0.86331362    -0.16200
F2156       F  0.75822046  0.52507508  0.85094458    -0.13800
C2157       C  0.64565062  0.95634688  0.84112074     0.24200
C2158       C  0.65198731  0.93819132  0.81779529    -0.23900
C2159       C  0.62368034  0.90673414  0.80738223     0.19100
C2160       C  0.59007530  0.89463462  0.81912332     0.24200
C2161       C  0.58345781  0.91380101  0.84135687    -0.23800
C2162       C  0.61192788  0.94456899  0.85252699     0.19100
F2163       F  0.60746939  0.96386323  0.87441118    -0.13800
F2164       F  0.67192427  0.98598027  0.85284065    -0.16200
F2165       F  0.56401019  0.86428662  0.80812110    -0.16200
F2166       F  0.62798490  0.88771716  0.78517894    -0.13800
C2167       C  0.91100370  0.60653368  0.85682000     0.24200
C2168       C  0.92403711  0.59419804  0.83345336    -0.23900
C2169       C  0.92132515  0.60406744  0.80398868     0.19100
C2170       C  0.90532937  0.62498548  0.79805266     0.24200
C2171       C  0.89192219  0.63673556  0.82138969    -0.23800
C2172       C  0.89510004  0.62756518  0.85079686     0.19100
F2173       F  0.88297310  0.63934392  0.87375525    -0.13800
F2174       F  0.91273175  0.59744562  0.88543512    -0.16200
F2175       F  0.90305436  0.63389035  0.76950880    -0.16200
F2176       F  0.93480554  0.59401070  0.78083100    -0.13800
C2177       C  0.83095017  0.76506574  0.76060238     0.24200
C2178       C  0.82997580  0.79087849  0.77913860    -0.23900
C2179       C  0.83001037  0.78634960  0.81017526     0.19100
C2180       C  0.83266219  0.75735727  0.82236346     0.24200
C2181       C  0.83620708  0.73302822  0.80365099    -0.23800
C2182       C  0.83412717  0.73645858  0.77275235     0.19100
F2183       F  0.83770184  0.71340643  0.75418175    -0.13800
F2184       F  0.83191808  0.76927615  0.73062497    -0.16200
F2185       F  0.83340298  0.75400279  0.85227572    -0.16200
F2186       F  0.82855771  0.81067777  0.82862562    -0.13800
C2187       C  0.92766006  0.95425948  0.81725469     0.24200
C2188       C  0.93056850  0.98668256  0.80628605    -0.23900
C2189       C  0.91708817  0.98699338  0.77828114     0.19100
C2190       C  0.89819651  0.95517708  0.76309773     0.24200
C2191       C  0.89162508  0.92211779  0.77586389    -0.23800
C2192       C  0.90818367  0.92235584  0.80240952     0.19100
F2193       F  0.90389649  0.89152610  0.81530651    -0.13800
F2194       F  0.94140061  0.95263064  0.84354105    -0.16200
F2195       F  0.88526426  0.95680936  0.73638951    -0.16200
F2196       F  0.92104422  0.01794700  0.76593019    -0.13800
C2197       C  0.49871546  0.59720546  0.42566009     0.24200
C2198       C  0.99731545  0.62124049  0.44418253    -0.23900
C2199       C  0.99954892  0.61782346  0.47514603     0.19100
C2200       C  0.00664374  0.59165155  0.48682522     0.24200
C2201       C  0.50943634  0.56710240  0.46713141    -0.23800
C2202       C  0.50556846  0.57040512  0.43652981     0.19100
F2203       F  0.51076473  0.54915139  0.41703489    -0.13800
F2204       F  0.49758428  0.60139062  0.39587044    -0.16200
F2205       F  0.01069482  0.59018619  0.51649391    -0.16200
F2206       F  0.99608547  0.64071047  0.49401655    -0.13800
C2207       C  0.56353606  0.96944085  0.52933266     0.24200
C2208       C  0.56482734  0.97485614  0.49834931    -0.23900
C2209       C  0.57604996  0.95620319  0.47966570     0.19100
C2210       C  0.58329569  0.93031503  0.49161236     0.24200
C2211       C  0.57977059  0.92303401  0.52251548    -0.23800
C2212       C  0.57145881  0.94397756  0.54141646     0.19100
F2213       F  0.56833458  0.93787518  0.57124709    -0.13800
F2214       F  0.55287122  0.98760230  0.54772634    -0.16200
F2215       F  0.59243346  0.91125989  0.47281520    -0.16200
F2216       F  0.57841171  0.96185587  0.44981791    -0.13800
C2217       C  0.52237228  0.79506473  0.48444793     0.24200
C2218       C  0.54893808  0.79999190  0.50376694    -0.23900
C2219       C  0.56442644  0.77788702  0.50153302     0.19100
C2220       C  0.55272642  0.75048846  0.48110758     0.24200
C2221       C  0.52580425  0.74513380  0.46208688    -0.23800
C2222       C  0.51100592  0.76798112  0.46367541     0.19100
F2223       F  0.99402805  0.76637298  0.43732626    -0.13800
F2224       F  0.50698236  0.81610641  0.48591919    -0.16200
F2225       F  0.56830156  0.72964473  0.47957489    -0.16200
F2226       F  0.59187028  0.78361581  0.51826950    -0.13800
C2227       C  0.97069506  0.89440137  0.44430893     0.24200
C2228       C  0.94427688  0.87209802  0.46490800    -0.23900
C2229       C  0.94380894  0.88546517  0.49347118     0.19100
C2230       C  0.96783245  0.92065756  0.50060512     0.24200
C2231       C  0.99224429  0.94361026  0.47918774    -0.23800
C2232       C  0.99405736  0.92988867  0.45126674     0.19100
F2233       F  0.51682782  0.95335619  0.42843020    -0.13800
F2234       F  0.97288744  0.88262857  0.41683175    -0.16200
F2235       F  0.96693290  0.93245710  0.52833022    -0.16200
F2236       F  0.91994134  0.86451886  0.51460430    -0.13800
C2237       C  0.60960592  0.64204711  0.52499534     0.24200
C2238       C  0.62856377  0.66824564  0.50295638    -0.23900
C2239       C  0.62276860  0.65874431  0.47283309     0.19100
C2240       C  0.59944907  0.62349183  0.46501135     0.24200
C2241       C  0.58173049  0.59714569  0.48715964    -0.23800
C2242       C  0.58653278  0.60687364  0.51714785     0.19100
F2243       F  0.56964930  0.58177936  0.53894066    -0.13800
F2244       F  0.61511564  0.64985728  0.55418747    -0.16200
F2245       F  0.59495354  0.61483581  0.43591995    -0.16200
F2246       F  0.64004608  0.68356774  0.45095830    -0.13800
C2247       C  0.78059125  0.78816557  0.50685051     0.24200
C2248       C  0.75156042  0.76063631  0.49305964    -0.23900
C2249       C  0.75758587  0.74338080  0.46888057     0.19100
C2250       C  0.79145892  0.75303197  0.45899282     0.24200
C2251       C  0.82048313  0.78068684  0.47269383    -0.23800
C2252       C  0.81441630  0.79806930  0.49676583     0.19100
F2253       F  0.84118584  0.82445708  0.51113286    -0.13800
F2254       F  0.77666010  0.80526456  0.53076070    -0.16200
F2255       F  0.79549285  0.73523241  0.43566277    -0.16200
F2256       F  0.73074017  0.71702181  0.45454844    -0.13800
C2257       C  0.63668971  0.55676670  0.49439776     0.24200
C2258       C  0.61161965  0.54970009  0.47309015    -0.23900
C2259       C  0.62112058  0.55302586  0.44274411     0.19100
C2260       C  0.65498384  0.56184322  0.43372033     0.24200
C2261       C  0.67987045  0.56749680  0.45496707    -0.23800
C2262       C  0.67067266  0.56560513  0.48539117     0.19100
F2263       F  0.69455450  0.57198915  0.50634913    -0.13800
F2264       F  0.62796981  0.55407342  0.52377528    -0.16200
F2265       F  0.66279720  0.56245482  0.40429800    -0.16200
F2266       F  0.59696641  0.54588004  0.42185399    -0.13800
C2267       C  0.93838765  0.97838418  0.46833140     0.24200
C2268       C  0.96383436  0.99337467  0.48975958    -0.23900
C2269       C  0.95660912  0.49707186  0.51753577     0.19100
C2270       C  0.92191202  0.48423518  0.52628754     0.24200
C2271       C  0.89307211  0.96626652  0.50619888    -0.23800
C2272       C  0.90325234  0.96519092  0.47643695     0.19100
F2273       F  0.87907521  0.95123616  0.45523773    -0.13800
F2274       F  0.94759791  0.97669048  0.43965561    -0.16200
F2275       F  0.91398488  0.48951301  0.55449022    -0.16200
F2276       F  0.98162610  0.51307634  0.53782132    -0.13800
C2277       C  0.79784555  0.52855135  0.44986162     0.24200
C2278       C  0.77197565  0.53381327  0.46463328    -0.23900
C2279       C  0.75997082  0.51824810  0.49305613     0.19100
C2280       C  0.76522610  0.98761307  0.50131270     0.24200
C2281       C  0.79259645  0.98383762  0.48783116    -0.23800
C2282       C  0.81109426  0.50804065  0.46311919     0.19100
F2283       F  0.83566235  0.50340808  0.44790931    -0.13800
F2284       F  0.81032997  0.54298518  0.42236320    -0.16200
F2285       F  0.75202466  0.97320222  0.52865659    -0.16200
F2286       F  0.73637555  0.52400685  0.50871234    -0.13800
C2287       C  0.81875188  0.88098571  0.09672998     0.24200
C2288       C  0.84348727  0.88209465  0.11654216    -0.23900
C2289       C  0.83617642  0.88081349  0.14734944     0.19100
C2290       C  0.80463414  0.87806747  0.15800976     0.24200
C2291       C  0.77936933  0.87526923  0.13813369    -0.23800
C2292       C  0.78687607  0.87711633  0.10741410     0.19100
F2293       F  0.76241262  0.87307947  0.08768135    -0.13800
F2294       F  0.82440806  0.88107654  0.06695059    -0.16200
F2295       F  0.79825561  0.87691729  0.18772176    -0.16200
F2296       F  0.85942370  0.88186090  0.16717037    -0.13800
C2297       C  0.57403465  0.80083797  0.14310211     0.24200
C2298       C  0.56125458  0.79235863  0.17283195    -0.23900
C2299       C  0.58486488  0.79929263  0.19555799     0.19100
C2300       C  0.62054782  0.81536999  0.18874108     0.24200
C2301       C  0.63306291  0.82406313  0.15911935    -0.23800
C2302       C  0.60958911  0.81646690  0.13636988     0.19100
F2303       F  0.62112613  0.82401540  0.10762514    -0.13800
F2304       F  0.55202718  0.79395651  0.12040698    -0.16200
F2305       F  0.64305683  0.82261955  0.21107299    -0.16200
F2306       F  0.57361758  0.79193770  0.22438884    -0.13800
C2307       C  0.92388132  0.78682687  0.14699077     0.24200
C2308       C  0.96021948  0.80149407  0.14825155    -0.23900
C2309       C  0.98175256  0.83555464  0.13543877     0.19100
C2310       C  0.96731277  0.85478103  0.12224545     0.24200
C2311       C  0.93098820  0.84061431  0.12179073    -0.23800
C2312       C  0.90939829  0.80640987  0.13414897     0.19100
F2313       F  0.87433181  0.79154815  0.13312145    -0.13800
F2314       F  0.90232050  0.75332348  0.15785338    -0.16200
F2315       F  0.98912355  0.88794784  0.11078477    -0.16200
F2316       F  0.51648669  0.85381869  0.13662658    -0.13800
C2317       C  0.78058770  0.97555825  0.18910844     0.24200
C2318       C  0.79997544  0.99986777  0.16596059    -0.23900
C2319       C  0.79514993  0.98750181  0.13651163     0.19100
C2320       C  0.77184597  0.95159309  0.13053472     0.24200
C2321       C  0.75345019  0.92727454  0.15384484    -0.23800
C2322       C  0.75772287  0.93969164  0.18310757     0.19100
F2323       F  0.74002575  0.91679007  0.20606595    -0.13800
F2324       F  0.78485979  0.98608793  0.21777837    -0.16200
F2325       F  0.76712280  0.94061725  0.10201754    -0.16200
F2326       F  0.81268281  0.01025569  0.11342738    -0.13800
C2327       C  0.61379902  0.71652362  0.15357183     0.24200
C2328       C  0.60979952  0.70922213  0.12297568    -0.23900
C2329       C  0.63275326  0.73521871  0.10241265     0.19100
C2330       C  0.65765774  0.76872417  0.11203521     0.24200
C2331       C  0.66066058  0.77660649  0.14242469    -0.23800
C2332       C  0.63935895  0.74990898  0.16323888     0.19100
F2333       F  0.64261952  0.75657293  0.19273269    -0.13800
F2334       F  0.59264827  0.69148655  0.17403793    -0.16200
F2335       F  0.67799346  0.79422739  0.09153223    -0.16200
F2336       F  0.62941838  0.72912403  0.07282731    -0.13800
C2337       C  0.95807944  0.58797988  0.12391300     0.24200
C2338       C  0.98417174  0.62365983  0.12779317    -0.23900
C2339       C  0.97524901  0.64704109  0.14288079     0.19100
C2340       C  0.94124445  0.63496635  0.15393428     0.24200
C2341       C  0.91538186  0.59906010  0.15046949    -0.23800
C2342       C  0.92433453  0.57590994  0.13506346     0.19100
F2343       F  0.90084094  0.54094724  0.13152862    -0.13800
F2344       F  0.96511448  0.56403628  0.10981675    -0.16200
F2345       F  0.93376754  0.65865580  0.16795397    -0.16200
F2346       F  0.50510040  0.66789156  0.16606522    -0.13800
C2347       C  0.74233922  0.77187342  0.20458707     0.24200
C2348       C  0.74152003  0.74520970  0.18598893    -0.23900
C2349       C  0.73836362  0.74843406  0.15515424     0.19100
C2350       C  0.73452283  0.77688705  0.14337668     0.24200
C2351       C  0.73239662  0.80179285  0.16234932    -0.23800
C2352       C  0.73710770  0.79946310  0.19294320     0.19100
F2353       F  0.73444336  0.82275436  0.21184655    -0.13800
F2354       F  0.74525680  0.76957229  0.23436192    -0.16200
F2355       F  0.73138187  0.77921013  0.11365938    -0.16200
F2356       F  0.73801796  0.72338303  0.13650879    -0.13800
C2357       C  0.66567197  0.91262884  0.16669858     0.24200
C2358       C  0.67830802  0.90002386  0.14341745    -0.23900
C2359       C  0.67420626  0.90836861  0.11394910     0.19100
C2360       C  0.65820005  0.92939853  0.10786382     0.24200
C2361       C  0.64590130  0.94251293  0.13121477    -0.23800
C2362       C  0.64989502  0.93376708  0.16073242     0.19100
F2363       F  0.63811998  0.94539307  0.18403860    -0.13800
F2364       F  0.66832189  0.90418690  0.19528911    -0.16200
F2365       F  0.65590273  0.93794742  0.07921408    -0.16200
F2366       F  0.68540603  0.89568461  0.09099499    -0.13800
C2367       C  0.64494377  0.58189807  0.14780682     0.24200
C2368       C  0.64080301  0.54918815  0.15915073    -0.23900
C2369       C  0.65580821  0.54896525  0.18640388     0.19100
C2370       C  0.67717915  0.58097174  0.20045484     0.24200
C2371       C  0.68374751  0.61408006  0.18776184    -0.23800
C2372       C  0.66622632  0.61390050  0.16181217     0.19100
F2373       F  0.67106083  0.64481549  0.14869467    -0.13800
F2374       F  0.63048671  0.58353243  0.12192647    -0.16200
F2375       F  0.69224211  0.57931514  0.22597833    -0.16200
F2376       F  0.65078206  0.51776330  0.19909576    -0.13800
loop_ 
_geom_bond_atom_site_label_1 
_geom_bond_atom_site_label_2 
_geom_bond_distance 
_geom_bond_site_symmetry_2 
_ccdc_geom_bond_type 
C1            N2   1.355       .  A
C1            N6   1.370       .  A
C1          C579   1.491       .  S
N2          C597   1.352       .  A
C3            N4   1.355       .  A
C3          N596   1.356   1_545  A
C3          C586   1.489       .  S
N4          C599   1.357   1_545  A
C5            N6   1.371       .  A
C5          N598   1.356       .  A
C5          C809   1.480       .  S
C7            N8   1.358       .  A
C7           N12   1.360       .  A
C7          C566   1.472       .  S
N8            C9   1.358       .  A
C9           N10   1.359       .  A
C9          C589   1.492       .  S
N10          C11   1.356       .  A
C11          N12   1.360       .  A
C11          C86   1.463       .  S
C13          N14   1.365       .  A
C13          N18   1.363       .  A
C13         C546   1.478       .  S
N14          C15   1.359       .  A
C15          N16   1.352       .  A
C15         C216   1.462       .  S
N16          C17   1.349       .  A
C17          N18   1.358       .  A
C17        C1744   1.488   1_455  S
C19          N20   1.362       .  A
C19          N24   1.364       .  A
C19        C1130   1.483   1_545  S
N20          C21   1.360       .  A
C21          N22   1.352       .  A
C21         C559   1.491       .  S
N22          C23   1.352       .  A
C23          N24   1.359       .  A
C23          C79   1.460       .  S
C25          N30   1.357       .  A
C25        N1214   1.374       .  A
C25         C516   1.483       .  S
N26          C27   1.371       .  A
N26        C1213   1.374       .  A
C27          N28   1.357       .  A
C27          C71   1.481       .  S
N28          C29   1.347       .  A
C29        N1218   1.349       .  A
C29         C526   1.476       .  S
N30        C1217   1.351   1_455  A
C31          N32   1.363       .  A
C31          N36   1.367       .  A
C31         C506   1.486       .  S
N32          C33   1.359       .  A
C33          N34   1.351       .  A
C33         C529   1.472       .  S
N34          C35   1.347       .  A
C35          N36   1.362       .  A
C35         C217   1.460       .  S
C37         C576   1.490       .  S
C37          C38   1.423       .  A
C37          C42   1.415       .  A
C38         C539   1.491       .  S
C38          C39   1.422       .  A
C39         C509   1.490       .  S
C39          C40   1.412       .  A
C40         C569   1.482       .  S
C40          C41   1.403       .  A
C41         C549   1.487       .  S
C41          C42   1.405       .  A
C42         C519   1.486       .  S
Zr43         O44   2.445       .  S
Zr43         O45   2.461       .  S
Zr43         O46   2.418       .  S
Zr43         O49   2.429       .  S
Zr43         O51   2.383       .  S
Zr43         O52   2.381       .  S
Zr43         O53   2.421       .  S
Zr43         O54   2.395       .  S
O44         H100   0.991       .  S
O44         H108   0.991       .  S
O45          C65   1.287       .  A
O46          C67   1.278       .  A
O47         Zr57   2.456       .  S
O47          C66   1.287       .  A
O48         Zr56   2.449       .  S
O48          C67   1.286       .  A
O49          C66   1.283       .  A
O50         Zr58   2.412       .  S
O50          C65   1.276       .  A
O51         Zr56   2.408       .  S
O51         Zr58   2.386       .  S
O52         Zr57   2.399       .  S
O52         Zr58   2.389       .  S
O52          H87   0.966       .  S
O53         Zr56   2.404       .  S
O53         Zr73   2.400       .  S
O53          H90   0.964       .  S
O54         Zr57   2.384       .  S
O54         Zr73   2.389       .  S
Zr55         O80   2.436       .  S
Zr55         O74   2.423       .  S
Zr55         O82   2.429       .  S
Zr55         O70   2.423       .  S
Zr55         O61   2.393       .  S
Zr55         O62   2.404       .  S
Zr55         O63   2.372       .  S
Zr55         O64   2.379       .  S
Zr56         O75   2.434       .  S
Zr56         O68   2.434       .  S
Zr56         O69   2.464       .  S
Zr56         O62   2.408       .  S
Zr56         O63   2.395       .  S
Zr57         O59   2.435       .  S
Zr57         O81   2.436       .  S
Zr57         O83   2.438       .  S
Zr57         O61   2.399       .  S
Zr57         O64   2.400       .  S
Zr58         O84   2.435       .  S
Zr58         O85   2.436       .  S
Zr58         O60   2.438       .  S
Zr58         O61   2.393       .  S
Zr58         O62   2.384       .  S
O59          H96   0.990       .  S
O60          H91   0.990       .  S
O60         H105   0.990       .  S
O62          H88   0.965       .  S
O63         Zr73   2.378       .  S
O64         Zr73   2.378       .  S
O64          H89   0.966       .  S
C65         C129   1.467       .  S
C66         C119   1.473       .  S
C67         C143   1.457       .  S
O68         H104   0.990       .  S
O69          C71   1.288       .  A
O70          C71   1.284       .  A
O72         Zr73   2.439       .  S
O72         H101   0.990       .  S
Zr73         O76   2.438       .  S
Zr73         O77   2.438       .  S
Zr73         O78   2.425       .  S
O74          C79   1.281       .  A
O75          H92   0.990       .  S
O75         H107   0.990       .  S
O76          H93   0.990       .  S
O77          H97   0.990       .  S
O77         H106   0.990       .  S
O78          C79   1.280       .  A
O80          H99   0.990       .  S
O80         H103   0.990       .  S
O81          H95   0.990       .  S
O81         H102   0.990       .  S
O82          C86   1.283       .  A
O83          C86   1.284       .  A
O84          H94   0.990       .  S
O85          H98   0.990       .  S
C109        N110   1.361       .  A
C109        N114   1.368       .  A
C109        C489   1.470       .  S
N110        C111   1.355       .  A
C111        N112   1.351       .  A
C111        C499   1.490       .  S
N112        C113   1.358       .  A
C113        N114   1.361       .  A
C113        C287   1.473       .  S
C115        N116   1.359       .  A
C115        N120   1.366       .  A
C115        C479   1.481       .  S
N116        C117   1.358       .  A
C117        N118   1.355       .  A
C117        C496   1.490       .  S
N118        C119   1.359       .  A
C119        N120   1.362       .  A
C121        N122   1.361       .  A
C121        N126   1.366       .  A
C121        C456   1.483       .  S
N122        C123   1.359       .  A
C123        N124   1.354       .  A
C123        C466   1.493       .  S
N124        C125   1.353       .  A
C125        N126   1.363       .  A
C125        C295   1.469       .  S
C127        N128   1.369       .  A
C127        N132   1.362       .  A
C127        C446   1.494       .  S
N128        C129   1.366       .  A
C129        N130   1.351       .  A
N130        C131   1.351       .  A
C131        N132   1.359       .  A
C131        C469   1.491       .  S
C133        N134   1.365       .  A
C133        N138   1.352       .  A
C133        C429   1.474       .  S
N134        C135   1.366       .  A
C135        N136   1.354       .  A
C135        C302   1.455       .  S
N136        C137   1.351       .  A
C137        N138   1.347       .  A
C137        C436   1.468       .  S
C139        N144   1.366       .  A
C139       N1328   1.350       .  A
C139        C416   1.481       .  S
N140       C1327   1.352   1_455  A
N140       C1329   1.348       .  A
C141        N142   1.351       .  A
C141       N1328   1.347       .  A
C141       C1627   1.469       .  S
N142        C143   1.354       .  A
C143        N144   1.368       .  A
C145        C459   1.489       .  S
C145        C146   1.415       .  A
C145        C150   1.407       .  A
C146        C419   1.483       .  S
C146       C1335   1.414       .  A
C147       C1080   1.483   1_545  S
C147       C1334   1.414       .  A
C147       C1930   1.410   1_545  A
C148       C1637   1.494   1_455  S
C148        C149   1.410       .  A
C148       C1929   1.410       .  A
C149        C426   1.475       .  S
C149        C744   1.408       .  A
C150        C476   1.487       .  S
C150        C743   1.409   1_545  A
C151        N152   1.363       .  A
C151        N156   1.359       .  A
C151        C396   1.481       .  S
N152        C153   1.363       .  A
C153        N154   1.354       .  A
C153        C283   1.466       .  S
N154        C155   1.357       .  A
C155        N156   1.359       .  A
C155        C409   1.491       .  S
C157        N158   1.369       .  A
C157        N162   1.355       .  A
C157        C386   1.490       .  S
N158        C159   1.369       .  A
C159        N160   1.359       .  A
C159        C229   1.480       .  S
N160        C161   1.357       .  A
C161        N162   1.354       .  A
C161       C1000   1.486   1_545  S
C163        N758   1.361   1_545  A
C163        N762   1.363   1_545  A
C163        C366   1.482       .  S
N164        C165   1.359       .  A
N164        C757   1.360       .  A
C165        N166   1.355       .  A
C165        C376   1.494       .  S
N166        C167   1.356       .  A
C167        N168   1.360       .  A
C167        C281   1.464       .  S
N168        C757   1.364       .  A
C169        N174   1.367       .  A
C169       N1358   1.360       .  A
C169        C356   1.473       .  S
N170        C171   1.356       .  A
N170       C1357   1.361   1_455  A
C171        N172   1.351       .  A
C171        C379   1.493       .  S
N172        C173   1.355       .  A
C173       N1362   1.357   1_455  A
C173        C221   1.464       .  S
N174       C1361   1.360       .  A
C175        N176   1.366       .  A
C175        N180   1.359       .  A
C175        C339   1.481       .  S
N176        C177   1.363       .  A
C177        N178   1.349       .  A
C177        C236   1.458       .  S
N178        C179   1.350       .  A
C179        N180   1.356       .  A
C179        C349   1.485       .  S
C181        N182   1.360       .  A
C181        N186   1.373       .  A
C181        C326   1.485       .  S
N182        C183   1.353       .  A
C183        N184   1.346       .  A
C183        C346   1.482       .  S
N184        C185   1.352       .  A
C185        N186   1.368       .  A
C185        C282   1.477       .  S
C187        C399   1.488       .  S
C187        C188   1.410       .  A
C187        C192   1.404       .  A
C188        C336   1.483       .  S
C188        C189   1.417       .  A
C189        C369   1.483       .  S
C189        C190   1.415       .  A
C190        C389   1.491       .  S
C190        C191   1.412       .  A
C191        C329   1.482       .  S
C191        C192   1.407       .  A
C192        C359   1.481       .  S
Zr193      O1382   2.446       .  S
Zr193       O195   2.461       .  S
Zr193       O199   2.412       .  S
Zr193      O1978   2.430   1_445  S
Zr193       O202   2.378       .  S
Zr193       O204   2.401       .  S
Zr193       O795   2.376   1_545  S
Zr193      O1985   2.414   1_445  S
O194      Zr1381   2.444       .  S
O194        H250   0.990       .  S
O194        H258   0.991       .  S
O195        C215   1.288   1_545  A
O196      Zr1975   2.439       .  S
O196        C217   1.282       .  A
O197       Zr207   2.447   1_554  S
O197        C216   1.285       .  A
O198       Zr206   2.436   1_554  S
O198        C217   1.284       .  A
O199        C216   1.282       .  A
O200       Zr208   2.427   1_554  S
O200        C215   1.279       .  A
O201       Zr787   2.379       .  S
O201      Zr1394   2.412   1_454  S
O201       Zr802   2.387   1_554  S
O202       Zr207   2.397   1_554  S
O202       Zr208   2.376   1_544  S
O202        H237   0.965       .  S
O203       Zr206   2.405   1_554  S
O203      Zr1975   2.414       .  S
O203       Zr817   2.396   1_554  S
O203        H240   0.965       .  S
O204       Zr207   2.391   1_554  S
O204      Zr1411   2.392   1_454  S
Zr205       O230   2.442       .  S
Zr205       O224   2.452       .  S
Zr205       O232   2.422       .  S
Zr205       O814   2.413   1_545  S
Zr205       O211   2.402       .  S
Zr205       O214   2.380       .  S
Zr205       O806   2.413   1_545  S
Zr205       O807   2.371   1_445  S
Zr206       O225   2.436       .  S
Zr206      O1406   2.434       .  S
Zr206       O219   2.462       .  S
Zr206      O1389   2.413   1_556  S
Zr206      O1400   2.401       .  S
Zr206      O1401   2.395       .  S
Zr207       O209   2.435       .  S
Zr207       O231   2.435   1_556  S
Zr207       O233   2.438       .  S
Zr207       O211   2.391       .  S
Zr207       O214   2.401       .  S
Zr208       O234   2.435   1_566  S
Zr208       O235   2.436       .  S
Zr208       O804   2.437       .  S
Zr208       O211   2.400   1_565  S
Zr208       O795   2.385   1_556  S
Zr208       O806   2.383       .  S
O209        H246   0.990       .  S
O210       Zr802   2.436       .  S
O210        H241   0.990       .  S
O210        H255   0.990   1_556  S
O212       Zr799   2.416       .  S
O212      Zr1394   2.405   1_455  S
O212       Zr802   2.375       .  S
O212        H238   0.963       .  S
O213       Zr799   2.374   1_655  S
O213      Zr1394   2.400       .  S
O213      Zr2005   2.383       .  S
O214      Zr1411   2.385   1_455  S
O214        H239   0.972       .  S
C215        C599   1.480       .  S
O218      Zr1394   2.433       .  S
O218        H254   0.990       .  S
O219       C1409   1.287       .  A
O220       Zr799   2.413       .  S
O220        C221   1.280       .  A
C221       O1407   1.288   1_455  A
O222       Zr223   2.440   1_554  S
O222        H251   0.990   1_554  S
Zr223       O227   2.440       .  S
Zr223       O820   2.437       .  S
Zr223       O228   2.428       .  S
Zr223       O797   2.402   1_546  S
Zr223      O1392   2.389   1_556  S
Zr223      O1995   2.383   1_545  S
Zr223      O1402   2.383       .  S
O224       C1417   1.286   1_455  A
O225        H242   0.990       .  S
O225        H257   0.990       .  S
O226       Zr817   2.436       .  S
O226        H243   0.990       .  S
O227        H247   0.990       .  S
O227       H1444   0.990       .  S
O228        C229   1.280       .  A
C229       O1412   1.287       .  A
O230        H249   0.990       .  S
O230        H847   0.990       .  S
O231        H245   0.990   1_554  S
O231        H252   0.990   1_554  S
O232        C236   1.279       .  A
O233        C236   1.284       .  A
O234        H244   0.990       .  S
O235        H842   0.990   1_565  S
H248        O829   0.990       .  S
H253        O824   0.991       .  S
H256       O1415   0.990   1_455  S
Zr259       O260   2.443       .  S
Zr259       O261   2.435       .  S
Zr259       O262   2.442       .  S
Zr259       O265   2.425       .  S
Zr259       O267   2.385       .  S
Zr259       O268   2.381       .  S
Zr259       O269   2.409       .  S
Zr259       O270   2.393       .  S
O260        H316   0.990       .  S
O260        H324   0.990       .  S
O261        C281   1.282       .  A
O262        C283   1.282       .  A
O263       Zr273   2.453       .  S
O263        C282   1.285       .  A
O264       Zr272   2.442       .  S
O264        C283   1.285       .  A
O265        C282   1.286       .  A
O266       Zr274   2.427       .  S
O266        C281   1.280       .  A
O267       Zr272   2.416       .  S
O267       Zr274   2.384       .  S
O268       Zr273   2.395       .  S
O268       Zr274   2.376       .  S
O268        H303   0.964       .  S
O269       Zr272   2.411       .  S
O269       Zr289   2.399       .  S
O269        H306   0.965       .  S
O270       Zr273   2.395       .  S
O270       Zr289   2.383       .  S
Zr271       O296   2.446       .  S
Zr271       O290   2.444       .  S
Zr271       O298   2.408       .  S
Zr271       O286   2.394       .  S
Zr271       O277   2.403       .  S
Zr271       O278   2.407       .  S
Zr271       O279   2.370       .  S
Zr271       O280   2.376       .  S
Zr272       O291   2.435       .  S
Zr272       O284   2.435       .  S
Zr272       O285   2.483       .  S
Zr272       O278   2.395       .  S
Zr272       O279   2.399       .  S
Zr273       O275   2.435       .  S
Zr273       O297   2.436       .  S
Zr273       O299   2.441       .  S
Zr273       O277   2.398       .  S
Zr273       O280   2.405       .  S
Zr274       O300   2.436       .  S
Zr274       O301   2.436       .  S
Zr274       O276   2.437       .  S
Zr274       O277   2.403       .  S
Zr274       O278   2.381       .  S
O275        H312   0.990       .  S
O276        H307   0.990       .  S
O276        H321   0.990       .  S
O278        H304   0.965       .  S
O279       Zr289   2.391       .  S
O280       Zr289   2.382       .  S
O280        H305   0.966       .  S
O284        H320   0.990       .  S
O285        C287   1.291       .  A
O286        C287   1.277       .  A
O288       Zr289   2.437       .  S
O288        H317   0.990       .  S
Zr289       O292   2.436       .  S
Zr289       O293   2.438       .  S
Zr289       O294   2.424       .  S
O290        C295   1.284       .  A
O291        H308   0.990       .  S
O291        H323   0.990       .  S
O292        H309   0.990       .  S
O293        H313   0.990       .  S
O293        H322   0.990       .  S
O294        C295   1.279       .  A
O296        H315   0.991       .  S
O296        H319   0.991       .  S
O297        H311   0.990       .  S
O297        H318   0.990       .  S
O298        C302   1.276       .  A
O299        C302   1.284       .  A
O300        H310   0.990       .  S
O301        H314   0.990       .  S
C325        C326   1.414   1_655  A
C325       C1518   1.400       .  A
C325        F332   1.358   1_655  S
C326       C1515   1.405   1_455  A
C327        C328   1.401       .  A
C327       C1514   1.404       .  A
C327        F334   1.358       .  S
C328        C329   1.407       .  A
C328        F333   1.358       .  S
C329        C330   1.398       .  A
C330       C1513   1.398       .  A
C330        F331   1.357       .  S
C335        C336   1.407       .  A
C335        C340   1.400       .  A
C335        F342   1.358       .  S
C336        C337   1.400       .  A
C337        C338   1.401       .  A
C337        F344   1.357       .  S
C338        C339   1.411       .  A
C338        F343   1.358       .  S
C339        C340   1.404       .  A
C340        F341   1.358       .  S
C345        C346   1.405       .  A
C345        C350   1.394       .  A
C345        F352   1.358       .  S
C346        C347   1.412       .  A
C347        C348   1.394       .  A
C347        F354   1.358       .  S
C348        C349   1.408       .  A
C348        F353   1.358       .  S
C349        C350   1.413       .  A
C350        F351   1.358       .  S
C355        C356   1.402       .  A
C355        C360   1.395       .  A
C355        F362   1.358       .  S
C356        C357   1.410       .  A
C357        C358   1.400       .  A
C357        F364   1.358       .  S
C358        C359   1.400       .  A
C358        F363   1.357       .  S
C359        C360   1.406       .  A
C360        F361   1.358       .  S
C365        C366   1.407       .  A
C365        C370   1.399       .  A
C365        F372   1.358       .  S
C366        C367   1.410       .  A
C367        C368   1.402       .  A
C367        F374   1.357       .  S
C368        C369   1.401       .  A
C368        F373   1.356       .  S
C369        C370   1.406       .  A
C370        F371   1.358       .  S
C375        C376   1.409       .  A
C375        C380   1.396       .  A
C375        F382   1.358       .  S
C376        C377   1.414       .  A
C377        C378   1.400       .  A
C377        F384   1.358       .  S
C378        C379   1.410       .  A
C378        F383   1.358       .  S
C379        C380   1.413       .  A
C380        F381   1.358       .  S
C385        C386   1.406       .  A
C385        C390   1.404       .  A
C385        F392   1.357       .  S
C386        C387   1.414       .  A
C387        C388   1.401       .  A
C387        F394   1.358       .  S
C388        C389   1.401       .  A
C388        F393   1.357       .  S
C389        C390   1.408       .  A
C390        F391   1.358       .  S
C395        C396   1.404       .  A
C395        C400   1.400       .  A
C395        F402   1.358       .  S
C396        C397   1.409       .  A
C397        C398   1.403       .  A
C397        F404   1.357       .  S
C398        C399   1.403       .  A
C398        F403   1.356       .  S
C399        C400   1.407       .  A
C400        F401   1.358       .  S
C405        C406   1.410       .  A
C405        C410   1.398       .  A
C405        F412   1.358       .  S
C406        C755   1.486       .  S
C406        C407   1.407       .  A
C407        C408   1.396       .  A
C407        F414   1.358       .  S
C408        C409   1.412       .  A
C408        F413   1.358       .  S
C409        C410   1.411       .  A
C410        F411   1.358       .  S
C415        C420   1.402   1_655  A
C415       C1604   1.404       .  A
C415        F422   1.358       .  S
C416        C417   1.416       .  A
C416       C1603   1.404       .  A
C417        C418   1.396       .  A
C417        F424   1.359       .  S
C418       C1607   1.397       .  A
C418        F423   1.358       .  S
C419        C420   1.409       .  A
C419       C1606   1.397       .  A
C420        F421   1.358       .  S
C425        C426   1.408       .  A
C425        C430   1.400       .  A
C425        F432   1.358       .  S
C426        C427   1.396       .  A
C427        C428   1.394       .  A
C427        F434   1.357       .  S
C428        C429   1.412       .  A
C428        F433   1.358       .  S
C429        C430   1.403       .  A
C430        F431   1.358       .  S
C435        C436   1.406       .  A
C435        C440   1.392       .  A
C435        F442   1.359       .  S
C436        C437   1.405       .  A
C437        C438   1.392       .  A
C437        F444   1.358       .  S
C438        C439   1.407       .  A
C438        F443   1.358       .  S
C439       C1329   1.470       .  S
C439        C440   1.407       .  A
C440       F1629   1.358   1_455  S
F441       C1628   1.358       .  S
C445        C446   1.408       .  A
C445        C450   1.405       .  A
C445        F452   1.358       .  S
C446        C447   1.413       .  A
C447        C448   1.403       .  A
C447        F454   1.358       .  S
C448        C449   1.403       .  A
C448        F453   1.357       .  S
C449       C1336   1.497       .  S
C449        C450   1.408       .  A
C450       F1639   1.358       .  S
F451       C1638   1.358   1_455  S
C455        C456   1.404       .  A
C455        C460   1.400       .  A
C455        F462   1.358       .  S
C456        C457   1.411       .  A
C457        C458   1.404       .  A
C457        F464   1.357       .  S
C458        C459   1.402       .  A
C458        F463   1.357       .  S
C459        C460   1.408       .  A
C460        F461   1.358       .  S
C465        C466   1.414       .  A
C465        C470   1.397       .  A
C465        F472   1.358       .  S
C466        C467   1.409       .  A
C467        C468   1.398       .  A
C467        F474   1.358       .  S
C468        C469   1.414       .  A
C468        F473   1.358       .  S
C469        C470   1.408       .  A
C470        F471   1.358       .  S
C475        C476   1.403       .  A
C475        C480   1.404       .  A
C475        F482   1.357       .  S
C476        C477   1.407       .  A
C477        C478   1.398       .  A
C477        F484   1.358       .  S
C478        C479   1.403       .  A
C478        F483   1.358       .  S
C479        C480   1.411       .  A
C480        F481   1.358       .  S
C485        C486   1.401       .  A
C485        C490   1.400       .  A
C485        F492   1.357       .  S
C486        C741   1.479       .  S
C486       C1081   1.406       .  A
C487        C488   1.398       .  A
C487       C1080   1.406       .  A
C487        F494   1.358   1_565  S
C488       C1083   1.402       .  A
C488        F493   1.358       .  S
C489        C490   1.408       .  A
C489       C1082   1.402       .  A
C490        F491   1.358       .  S
C495        C496   1.413       .  A
C495        C500   1.402   1_545  A
C495        F502   1.358       .  S
C496        C497   1.408       .  A
C497       C1092   1.397   1_545  A
C497        F504   1.358       .  S
C498        C499   1.412       .  A
C498       C1091   1.398       .  A
C498        F503   1.358       .  S
C499       C1094   1.408       .  A
C500       C1093   1.406       .  A
C500        F501   1.358       .  S
C505        C506   1.405       .  A
C505        C510   1.399       .  A
C505        F512   1.358       .  S
C506        C507   1.411       .  A
C507        C508   1.404       .  A
C507        F514   1.358       .  S
C508        C509   1.406       .  A
C508        F513   1.357       .  S
C509        C510   1.407       .  A
C510        F511   1.358       .  S
C515        C516   1.414       .  A
C515        C520   1.401       .  A
C515        F522   1.358       .  S
C516        C517   1.403       .  A
C517        C518   1.401       .  A
C517        F524   1.357       .  S
C518        C519   1.407       .  A
C518        F523   1.358       .  S
C519        C520   1.400       .  A
C520        F521   1.358       .  S
C525        C526   1.410       .  A
C525        C530   1.400       .  A
C525        F532   1.356       .  S
C526        C527   1.406       .  A
C527        C528   1.388       .  A
C527       F1722   1.358       .  S
C528        C529   1.407       .  A
C528        F533   1.359       .  S
C529        C530   1.404       .  A
C530        F531   1.358       .  S
F534       C1715   1.358   1_455  S
C535        C536   1.406       .  A
C535        C540   1.402       .  A
C535        F542   1.357       .  S
C536        C613   1.492       .  S
C536        C537   1.413       .  A
C537        C538   1.406       .  A
C537        F544   1.358       .  S
C538        C539   1.404       .  A
C538        F543   1.357       .  S
C539        C540   1.406       .  A
C540        F541   1.358       .  S
C545        C546   1.409       .  A
C545        C550   1.401       .  A
C545        F552   1.358       .  S
C546        C547   1.404       .  A
C547        C548   1.398       .  A
C547        F554   1.358       .  S
C548        C549   1.406       .  A
C548        F553   1.358       .  S
C549        C550   1.402       .  A
C550        F551   1.357       .  S
C555        C556   1.416       .  A
C555        C560   1.396       .  A
C555        F562   1.358       .  S
C556       C1205   1.491       .  S
C556        C557   1.407       .  A
C557        C558   1.399       .  A
C557       F1752   1.358       .  S
C558        C559   1.415       .  A
C558        F563   1.358       .  S
C559        C560   1.406       .  A
C560        F561   1.358       .  S
F564       C1745   1.358   1_455  S
C565        C566   1.403       .  A
C565        C570   1.398       .  A
C565        F572   1.358       .  S
C566        C567   1.407       .  A
C567        C568   1.400       .  A
C567        F574   1.357       .  S
C568        C569   1.401       .  A
C568        F573   1.356       .  S
C569        C570   1.408       .  A
C570        F571   1.359       .  S
C575        C576   1.400       .  A
C575        C580   1.400       .  A
C575        F582   1.357       .  S
C576        C577   1.408       .  A
C577        C578   1.406       .  A
C577        F584   1.358       .  S
C578        C579   1.407       .  A
C578        F583   1.357       .  S
C579        C580   1.415       .  A
C580        F581   1.358       .  S
C585        C586   1.411       .  A
C585        C590   1.399       .  A
C585        F592   1.358       .  S
C586        C587   1.408       .  A
C587        C588   1.397       .  A
C587        F594   1.358       .  S
C588        C589   1.411       .  A
C588        F593   1.358       .  S
C589        C590   1.412       .  A
C590        F591   1.358       .  S
C595        N596   1.358       .  A
C595        N600   1.370       .  A
C595       C1173   1.499       .  S
C597        N598   1.355       .  A
C597       C1180   1.480       .  S
C599        N600   1.370       .  A
C601        N602   1.355       .  A
C601        N606   1.360       .  A
C601       C1160   1.477       .  S
N602        C603   1.357       .  A
C603        N604   1.358       .  A
C603       C1183   1.487       .  S
N604        C605   1.357       .  A
C605        N606   1.361       .  A
C605        C680   1.460       .  S
C607        N608   1.368       .  A
C607        N612   1.365       .  A
C607       C1140   1.483       .  S
N608        C609   1.362       .  A
C609        N610   1.350       .  A
C609        C810   1.468       .  S
N610        C611   1.349       .  A
C611        N612   1.359       .  A
C611       C2338   1.489   1_455  S
C613        N614   1.362       .  A
C613        N618   1.370       .  A
N614        C615   1.359       .  A
C615        N616   1.351       .  A
C615       C1153   1.486       .  S
N616        C617   1.351       .  A
C617        N618   1.366       .  A
C617        C673   1.472       .  S
C619       N1808   1.372       .  A
C619        N624   1.356       .  A
C619       C1110   1.480       .  S
N620       C1807   1.371       .  A
N620        C621   1.367       .  A
C621        N622   1.355       .  A
C621        C665   1.470       .  S
N622        C623   1.346       .  A
C623       N1812   1.348       .  A
C623       C1120   1.476       .  S
N624       C1811   1.349   1_455  A
C625        N626   1.361       .  A
C625        N630   1.367       .  A
C625       C1100   1.484       .  S
N626        C627   1.357       .  A
C627        N628   1.350       .  A
C627       C1123   1.471       .  S
N628        C629   1.347       .  A
C629        N630   1.363       .  A
C629        C811   1.459       .  S
C631       C1170   1.492       .  S
C631        C632   1.418       .  A
C631        C636   1.411       .  A
C632       C1133   1.482       .  S
C632        C633   1.420       .  A
C633       C1103   1.488       .  S
C633        C634   1.412       .  A
C634       C1163   1.485       .  S
C634        C635   1.406       .  A
C635       C1143   1.487       .  S
C635        C636   1.407       .  A
C636       C1113   1.482       .  S
Zr637       O638   2.445       .  S
Zr637       O639   2.450       .  S
Zr637       O640   2.419       .  S
Zr637       O643   2.407       .  S
Zr637       O645   2.375       .  S
Zr637       O646   2.384       .  S
Zr637       O647   2.414       .  S
Zr637       O648   2.396       .  S
O638        H694   0.991       .  S
O638        H702   0.991       .  S
O639        C659   1.285       .  A
O640        C661   1.278       .  A
O641       Zr651   2.461       .  S
O641        C660   1.288       .  A
O642       Zr650   2.448       .  S
O642        C661   1.285       .  A
O643        C660   1.280       .  A
O644       Zr652   2.421       .  S
O644        C659   1.277       .  A
O645       Zr650   2.406       .  S
O645       Zr652   2.384       .  S
O646       Zr651   2.399       .  S
O646       Zr652   2.386       .  S
O646        H681   0.966       .  S
O647       Zr650   2.405       .  S
O647       Zr667   2.406       .  S
O647        H684   0.965       .  S
O648       Zr651   2.384       .  S
O648       Zr667   2.385       .  S
Zr649       O674   2.447       .  S
Zr649       O668   2.442       .  S
Zr649       O676   2.420       .  S
Zr649       O664   2.411       .  S
Zr649       O655   2.398       .  S
Zr649       O656   2.401       .  S
Zr649       O657   2.371       .  S
Zr649       O658   2.376       .  S
Zr650       O669   2.435       .  S
Zr650       O662   2.436       .  S
Zr650       O663   2.460       .  S
Zr650       O656   2.402       .  S
Zr650       O657   2.396       .  S
Zr651       O653   2.435       .  S
Zr651       O675   2.438       .  S
Zr651       O677   2.445       .  S
Zr651       O655   2.397       .  S
Zr651       O658   2.398       .  S
Zr652       O678   2.438       .  S
Zr652       O679   2.435       .  S
Zr652       O654   2.437       .  S
Zr652       O655   2.399       .  S
Zr652       O656   2.387       .  S
O653        H690   0.990       .  S
O654        H685   0.990       .  S
O654        H699   0.990       .  S
O656        H682   0.965       .  S
O657       Zr667   2.375       .  S
O658       Zr667   2.374       .  S
O658        H683   0.966       .  S
C659        C723   1.466       .  S
C660        C713   1.466       .  S
C661        C737   1.459       .  S
O662        H698   0.990       .  S
O663        C665   1.287       .  A
O664        C665   1.283       .  A
O666       Zr667   2.437       .  S
O666        H695   0.990       .  S
Zr667       O670   2.435       .  S
Zr667       O671   2.439       .  S
Zr667       O672   2.433       .  S
O668        C673   1.287       .  A
O669        H686   0.990       .  S
O669        H701   0.990       .  S
O670        H687   0.990       .  S
O671        H691   0.990       .  S
O671        H700   0.990       .  S
O672        C673   1.282       .  A
O674        H693   0.990       .  S
O674        H697   0.990       .  S
O675        H689   0.990       .  S
O675        H696   0.990       .  S
O676        C680   1.282       .  A
O677        C680   1.286       .  A
O678        H688   0.990       .  S
O679        H692   0.990       .  S
C703        N704   1.361       .  A
C703        N708   1.370       .  A
C703       C1083   1.474       .  S
N704        C705   1.354       .  A
C705        N706   1.349       .  A
C705       C1093   1.486       .  S
N706        C707   1.356       .  A
C707        N708   1.364       .  A
C707        C881   1.474       .  S
C709        N710   1.361       .  A
C709        N714   1.364       .  A
C709       C1073   1.477       .  S
N710        C711   1.358       .  A
C711        N712   1.353       .  A
C711       C1090   1.489       .  S
N712        C713   1.357       .  A
C713        N714   1.359       .  A
C715        N716   1.360       .  A
C715        N720   1.366       .  A
C715       C1050   1.483       .  S
N716        C717   1.358       .  A
C717        N718   1.353       .  A
C717       C1060   1.491       .  S
N718        C719   1.353       .  A
C719        N720   1.363       .  A
C719        C889   1.465       .  S
C721        N722   1.368       .  A
C721        N726   1.362       .  A
C721       C1040   1.495       .  S
N722        C723   1.365       .  A
C723        N724   1.352       .  A
N724        C725   1.352       .  A
C725        N726   1.360       .  A
C725       C1063   1.493       .  S
C727        N728   1.364       .  A
C727        N732   1.351       .  A
C727       C1023   1.471       .  S
N728        C729   1.365       .  A
C729        N730   1.355       .  A
C729        C896   1.454       .  S
N730        C731   1.351       .  A
C731        N732   1.348       .  A
C731       C1030   1.466       .  S
C733       N1922   1.354       .  A
C733        N738   1.367       .  A
C733       C1010   1.484       .  S
N734       C1921   1.353   1_455  A
N734       C1923   1.350       .  A
C735       N1922   1.351       .  A
C735        N736   1.351       .  A
C735       C2221   1.471       .  S
N736        C737   1.353       .  A
C737        N738   1.367       .  A
C739       C1053   1.485       .  S
C739        C740   1.408       .  A
C739        C744   1.406       .  A
C740       C1013   1.478       .  S
C740       C1929   1.410       .  A
C741       C1928   1.412       .  A
C741       C1336   1.410       .  A
C742       C2231   1.496   1_455  S
C742       C1335   1.413   1_565  A
C742        C743   1.412       .  A
C743       C1020   1.476       .  S
C744       C1070   1.481       .  S
C745        N746   1.362       .  A
C745        N750   1.357       .  A
C745        C990   1.479       .  S
N746        C747   1.363       .  A
C747        N748   1.356       .  A
C747        C877   1.465       .  S
N748        C749   1.358       .  A
C749        N750   1.356       .  A
C749       C1003   1.489       .  S
C751        N752   1.368       .  A
C751        N756   1.357       .  A
C751        C980   1.489       .  S
N752        C753   1.367       .  A
C753        N754   1.356       .  A
C753        C823   1.474       .  S
N754        C755   1.355       .  A
C755        N756   1.356       .  A
C757        C960   1.485       .  S
N758        C759   1.360       .  A
C759        N760   1.354       .  A
C759        C970   1.493       .  S
N760        C761   1.354       .  A
C761        N762   1.359       .  A
C761        C875   1.461       .  S
C763       N1952   1.361       .  A
C763        N768   1.366       .  A
C763        C950   1.473       .  S
N764       C1951   1.363   1_455  A
N764        C765   1.357       .  A
C765        N766   1.350       .  A
C765        C973   1.494       .  S
N766        C767   1.355       .  A
C767       N1956   1.359   1_455  A
C767        C815   1.468       .  S
N768       C1955   1.359       .  A
C769        N770   1.365       .  A
C769        N774   1.358       .  A
C769        C933   1.479       .  S
N770        C771   1.363       .  A
C771        N772   1.350       .  A
C771        C830   1.455       .  S
N772        C773   1.350       .  A
C773        N774   1.356       .  A
C773        C943   1.475       .  S
C775        N776   1.360       .  A
C775        N780   1.372       .  A
C775        C920   1.482       .  S
N776        C777   1.351       .  A
C777        N778   1.344       .  A
C777        C940   1.469       .  S
N778        C779   1.352       .  A
C779        N780   1.366       .  A
C779        C876   1.470       .  S
C781        C993   1.487       .  S
C781        C782   1.410       .  A
C781        C786   1.406       .  A
C782        C930   1.484       .  S
C782        C783   1.416       .  A
C783        C963   1.484       .  S
C783        C784   1.415       .  A
C784        C983   1.487       .  S
C784        C785   1.412       .  A
C785        C923   1.487       .  S
C785        C786   1.408       .  A
C786        C953   1.480       .  S
Zr787      O1976   2.445       .  S
Zr787       O789   2.468       .  S
Zr787      O1384   2.436   1_455  S
Zr787       O793   2.422       .  S
Zr787       O796   2.379       .  S
Zr787      O1391   2.418   1_455  S
Zr787       O798   2.404       .  S
O788      Zr1975   2.444       .  S
O788        H844   0.991       .  S
O788        H852   0.991       .  S
O789        C809   1.289       .  A
O790      Zr1381   2.436   1_565  S
O790        C811   1.282       .  A
O791       Zr801   2.446   1_554  S
O791        C810   1.284       .  A
O792       Zr800   2.435   1_554  S
O792        C811   1.284       .  A
O793        C810   1.284       .  A
O794       Zr802   2.417   1_554  S
O794        C809   1.277       .  A
O795      Zr1988   2.414   1_454  S
O796       Zr801   2.395   1_554  S
O796       Zr802   2.380   1_554  S
O796        H831   0.965       .  S
O797      Zr1381   2.411   1_565  S
O797       Zr800   2.403   1_554  S
O797        H834   0.966       .  S
O798       Zr801   2.393   1_554  S
O798      Zr2005   2.397   1_454  S
Zr799       O824   2.446       .  S
Zr799       O818   2.456       .  S
Zr799       O826   2.424       .  S
Zr799       O805   2.406       .  S
Zr799       O808   2.381       .  S
Zr800       O819   2.435       .  S
Zr800      O2000   2.432       .  S
Zr800       O813   2.460       .  S
Zr800      O1983   2.407   1_556  S
Zr800      O1994   2.403       .  S
Zr800      O1995   2.398       .  S
Zr801       O803   2.435       .  S
Zr801       O825   2.438   1_556  S
Zr801       O827   2.434       .  S
Zr801       O805   2.392       .  S
Zr801       O808   2.405       .  S
Zr802       O828   2.435   1_556  S
Zr802       O829   2.437       .  S
Zr802       O805   2.400       .  S
O803        H840   0.990       .  S
O804        H835   0.990   1_556  S
O804        H849   0.990   1_556  S
O806      Zr1988   2.403   1_455  S
O806        H832   0.964       .  S
O807      Zr1988   2.393       .  S
O807      Zr1411   2.385   1_565  S
O808      Zr2005   2.380   1_455  S
O808        H833   0.972       .  S
O812      Zr1988   2.433       .  S
O812        H848   0.990       .  S
O813       C2003   1.287       .  A
O814        C815   1.280       .  A
C815       O2001   1.288   1_455  A
O816       Zr817   2.438   1_554  S
O816        H845   0.990       .  S
Zr817       O821   2.438       .  S
Zr817       O822   2.421       .  S
Zr817      O1986   2.391   1_556  S
Zr817      O1401   2.386       .  S
Zr817      O1996   2.383       .  S
O818       C2011   1.287   1_455  A
O819        H836   0.990       .  S
O819        H851   0.990       .  S
O820        H837   0.990       .  S
O821        H841   0.990       .  S
O821       H2038   0.990       .  S
O822        C823   1.279       .  A
C823       O2006   1.286       .  A
O824        H843   0.991       .  S
O825        H839   0.990   1_554  S
O825        H846   0.990       .  S
O826        C830   1.280       .  A
O827        C830   1.284       .  A
O828        H838   0.990   1_554  S
H850       O2009   0.990   1_455  S
Zr853       O854   2.444       .  S
Zr853       O855   2.432       .  S
Zr853       O856   2.441       .  S
Zr853       O859   2.414       .  S
Zr853       O861   2.379       .  S
Zr853       O862   2.382       .  S
Zr853       O863   2.410       .  S
Zr853       O864   2.395       .  S
O854        H910   0.990       .  S
O854        H918   0.990       .  S
O855        C875   1.281       .  A
O856        C877   1.283       .  A
O857       Zr867   2.449       .  S
O857        C876   1.284       .  A
O858       Zr866   2.439       .  S
O858        C877   1.285       .  A
O859        C876   1.283       .  A
O860       Zr868   2.423       .  S
O860        C875   1.279       .  A
O861       Zr866   2.411       .  S
O861       Zr868   2.381       .  S
O862       Zr867   2.397       .  S
O862       Zr868   2.375       .  S
O862        H897   0.966       .  S
O863       Zr866   2.410       .  S
O863       Zr883   2.399       .  S
O863        H900   0.965       .  S
O864       Zr867   2.400       .  S
O864       Zr883   2.384       .  S
Zr865       O890   2.445       .  S
Zr865       O884   2.439       .  S
Zr865       O892   2.397       .  S
Zr865       O880   2.401       .  S
Zr865       O871   2.401       .  S
Zr865       O872   2.400       .  S
Zr865       O873   2.366       .  S
Zr865       O874   2.376       .  S
Zr866       O885   2.435       .  S
Zr866       O878   2.435       .  S
Zr866       O879   2.474       .  S
Zr866       O872   2.396       .  S
Zr866       O873   2.393       .  S
Zr867       O869   2.436       .  S
Zr867       O891   2.436       .  S
Zr867       O893   2.449       .  S
Zr867       O871   2.395       .  S
Zr867       O874   2.402       .  S
Zr868       O894   2.436       .  S
Zr868       O895   2.436       .  S
Zr868       O870   2.435       .  S
Zr868       O871   2.400       .  S
Zr868       O872   2.385       .  S
O869        H906   0.990       .  S
O870        H901   0.990       .  S
O870        H915   0.990       .  S
O872        H898   0.965       .  S
O873       Zr883   2.386       .  S
O874       Zr883   2.378       .  S
O874        H899   0.966       .  S
O878        H914   0.990       .  S
O879        C881   1.290       .  A
O880        C881   1.280       .  A
O882       Zr883   2.438       .  S
O882        H911   0.990       .  S
Zr883       O886   2.437       .  S
Zr883       O887   2.437       .  S
Zr883       O888   2.421       .  S
O884        C889   1.284       .  A
O885        H902   0.990       .  S
O885        H917   0.990       .  S
O886        H903   0.990       .  S
O887        H907   0.990       .  S
O887        H916   0.990       .  S
O888        C889   1.279       .  A
O890        H909   0.991       .  S
O890        H913   0.991       .  S
O891        H905   0.990       .  S
O891        H912   0.990       .  S
O892        C896   1.276       .  A
O893        C896   1.285       .  A
O894        H904   0.990       .  S
O895        H908   0.990       .  S
C919        C920   1.413   1_655  A
C919       C2112   1.397       .  A
C919        F926   1.358   1_655  S
C920       C2109   1.406   1_455  A
C921       C2108   1.407       .  A
C921        C922   1.401       .  A
C921        F928   1.357       .  S
C922        C923   1.406       .  A
C922        F927   1.358       .  S
C923        C924   1.399       .  A
C924       C2107   1.401       .  A
C924        F925   1.358       .  S
C929        C930   1.407       .  A
C929        C934   1.400       .  A
C929        F936   1.358       .  S
C930        C931   1.401       .  A
C931        C932   1.402       .  A
C931        F938   1.357       .  S
C932        C933   1.411       .  A
C932        F937   1.358       .  S
C933        C934   1.403       .  A
C934        F935   1.358       .  S
C939        C940   1.403       .  A
C939        C944   1.396       .  A
C939        F946   1.358       .  S
C940        C941   1.407       .  A
C941        C942   1.392       .  A
C941        F948   1.358       .  S
C942        C943   1.406       .  A
C942        F947   1.358       .  S
C943        C944   1.411       .  A
C944        F945   1.358       .  S
C949        C950   1.402       .  A
C949        C954   1.396       .  A
C949        F956   1.358       .  S
C950        C951   1.410       .  A
C951        C952   1.400       .  A
C951        F958   1.358       .  S
C952        C953   1.400       .  A
C952        F957   1.357       .  S
C953        C954   1.406       .  A
C954        F955   1.358       .  S
C959        C960   1.407       .  A
C959        C964   1.399       .  A
C959        F966   1.358       .  S
C960        C961   1.412       .  A
C961        C962   1.402       .  A
C961        F968   1.358       .  S
C962        C963   1.401       .  A
C962        F967   1.357       .  S
C963        C964   1.405       .  A
C964        F965   1.358       .  S
C969        C970   1.408       .  A
C969        C974   1.396       .  A
C969        F976   1.358       .  S
C970        C971   1.415       .  A
C971        C972   1.400       .  A
C971        F978   1.358       .  S
C972        C973   1.409       .  A
C972        F977   1.358       .  S
C973        C974   1.414       .  A
C974        F975   1.357       .  S
C979        C980   1.407       .  A
C979        C984   1.403       .  A
C979        F986   1.357       .  S
C980        C981   1.413       .  A
C981        C982   1.400       .  A
C981        F988   1.358       .  S
C982        C983   1.400       .  A
C982        F987   1.357       .  S
C983        C984   1.406       .  A
C984        F985   1.358       .  S
C989        C990   1.404       .  A
C989        C994   1.401       .  A
C989        F996   1.358       .  S
C990        C991   1.408       .  A
C991        C992   1.401       .  A
C991        F998   1.358       .  S
C992        C993   1.403       .  A
C992        F997   1.356       .  S
C993        C994   1.408       .  A
C994        F995   1.358       .  S
C999       C1000   1.408       .  A
C999       C1004   1.398       .  A
C999       F1006   1.358       .  S
C1000      C1001   1.409       .  A
C1001      C1002   1.397       .  A
C1001      F1008   1.358   1_565  S
C1002      C1003   1.410       .  A
C1002      F1007   1.358       .  S
C1003      C1004   1.413       .  A
C1004      F1005   1.358       .  S
C1009      C2198   1.402       .  A
C1009      C1014   1.397   1_655  A
C1009      F1016   1.358       .  S
C1010      C2197   1.405       .  A
C1010      C1011   1.415       .  A
C1011      C1012   1.396       .  A
C1011      F1018   1.358       .  S
C1012      C2201   1.397       .  A
C1012      F1017   1.357       .  S
C1013      C2200   1.400       .  A
C1013      C1014   1.406       .  A
C1014      F1015   1.358       .  S
C1019      C1020   1.408       .  A
C1019      C1024   1.399       .  A
C1019      F1026   1.358       .  S
C1020      C1021   1.398       .  A
C1021      C1022   1.395       .  A
C1021      F1028   1.357       .  S
C1022      C1023   1.411       .  A
C1022      F1027   1.358       .  S
C1023      C1024   1.401       .  A
C1024      F1025   1.358       .  S
C1029      C1030   1.405       .  A
C1029      C1034   1.389       .  A
C1029      F1036   1.359       .  S
C1030      C1031   1.406       .  A
C1031      C1032   1.393       .  A
C1031      F1038   1.358       .  S
C1032      C1033   1.406       .  A
C1032      F1037   1.359       .  S
C1033      C1923   1.466       .  S
C1033      C1034   1.407       .  A
C1034      F2223   1.358   1_455  S
F1035      C2222   1.358       .  S
C1039      C1040   1.409       .  A
C1039      C1044   1.403       .  A
C1039      F1046   1.357       .  S
C1040      C1041   1.414       .  A
C1041      C1042   1.404       .  A
C1041      F1048   1.357       .  S
C1042      C1043   1.403       .  A
C1042      F1047   1.357       .  S
C1043      C1930   1.496       .  S
C1043      C1044   1.407       .  A
C1044      F2233   1.358       .  S
F1045      C2232   1.358   1_455  S
C1049      C1050   1.406       .  A
C1049      C1054   1.399       .  A
C1049      F1056   1.358       .  S
C1050      C1051   1.412       .  A
C1051      C1052   1.402       .  A
C1051      F1058   1.358       .  S
C1052      C1053   1.401       .  A
C1052      F1057   1.357       .  S
C1053      C1054   1.405       .  A
C1054      F1055   1.358       .  S
C1059      C1060   1.413       .  A
C1059      C1064   1.397       .  A
C1059      F1066   1.358       .  S
C1060      C1061   1.409       .  A
C1061      C1062   1.398       .  A
C1061      F1068   1.358       .  S
C1062      C1063   1.415       .  A
C1062      F1067   1.358       .  S
C1063      C1064   1.408       .  A
C1064      F1065   1.358       .  S
C1069      C1070   1.401       .  A
C1069      C1074   1.401       .  A
C1069      F1076   1.357       .  S
C1070      C1071   1.405       .  A
C1071      C1072   1.396       .  A
C1071      F1078   1.358       .  S
C1072      C1073   1.404       .  A
C1072      F1077   1.358       .  S
C1073      C1074   1.410       .  A
C1074      F1075   1.358       .  S
C1079      C1080   1.402       .  A
C1079      C1084   1.401       .  A
C1079      F1086   1.357       .  S
C1081      C1082   1.396       .  A
C1081      F1088   1.358       .  S
C1082      F1087   1.358       .  S
C1083      C1084   1.409       .  A
C1084      F1085   1.358       .  S
C1089      C1090   1.413       .  A
C1089      C1094   1.401       .  A
C1089      F1096   1.358       .  S
C1090      C1091   1.407       .  A
C1091      F1098   1.358       .  S
C1092      C1093   1.411       .  A
C1092      F1097   1.358       .  S
C1094      F1095   1.358       .  S
C1099      C1100   1.404       .  A
C1099      C1104   1.399       .  A
C1099      F1106   1.358       .  S
C1100      C1101   1.411       .  A
C1101      C1102   1.404       .  A
C1101      F1108   1.358       .  S
C1102      C1103   1.404       .  A
C1102      F1107   1.357       .  S
C1103      C1104   1.406       .  A
C1104      F1105   1.358       .  S
C1109      C1110   1.414       .  A
C1109      C1114   1.397       .  A
C1109      F1116   1.358       .  S
C1110      C1111   1.404       .  A
C1111      C1112   1.400       .  A
C1111      F1118   1.357       .  S
C1112      C1113   1.406       .  A
C1112      F1117   1.358       .  S
C1113      C1114   1.398       .  A
C1114      F1115   1.358       .  S
C1119      C1120   1.410       .  A
C1119      C1124   1.397       .  A
C1119      F1126   1.357       .  S
C1120      C1121   1.406       .  A
C1121      C1122   1.390       .  A
C1121      F2316   1.358       .  S
C1122      C1123   1.408       .  A
C1122      F1127   1.359       .  S
C1123      C1124   1.403       .  A
C1124      F1125   1.358       .  S
F1128      C2309   1.359   1_455  S
C1129      C1130   1.407       .  A
C1129      C1134   1.398       .  A
C1129      F1136   1.358       .  S
C1130      C1131   1.411       .  A
C1131      C1132   1.402       .  A
C1131      F1138   1.358   1_565  S
C1132      C1133   1.402       .  A
C1132      F1137   1.357       .  S
C1133      C1134   1.404       .  A
C1134      F1135   1.358       .  S
C1139      C1140   1.410       .  A
C1139      C1144   1.401       .  A
C1139      F1146   1.357       .  S
C1140      C1141   1.406       .  A
C1141      C1142   1.400       .  A
C1141      F1148   1.358       .  S
C1142      C1143   1.406       .  A
C1142      F1147   1.359       .  S
C1143      C1144   1.402       .  A
C1144      F1145   1.357       .  S
C1149      C1150   1.414       .  A
C1149      C1154   1.398       .  A
C1149      F1156   1.358       .  S
C1150      C1799   1.487       .  S
C1150      C1151   1.406       .  A
C1151      C1152   1.396       .  A
C1151      F2346   1.358       .  S
C1152      C1153   1.414       .  A
C1152      F1157   1.358       .  S
C1153      C1154   1.405       .  A
C1154      F1155   1.358       .  S
F1158      C2339   1.358       .  S
C1159      C1160   1.403       .  A
C1159      C1164   1.399       .  A
C1159      F1166   1.358       .  S
C1160      C1161   1.409       .  A
C1161      C1162   1.401       .  A
C1161      F1168   1.358       .  S
C1162      C1163   1.402       .  A
C1162      F1167   1.357       .  S
C1163      C1164   1.408       .  A
C1164      F1165   1.358       .  S
C1169      C1170   1.400       .  A
C1169      C1174   1.403       .  A
C1169      F1176   1.357       .  S
C1170      C1171   1.407       .  A
C1171      C1172   1.406       .  A
C1171      F1178   1.358       .  S
C1172      C1173   1.409       .  A
C1172      F1177   1.357       .  S
C1173      C1174   1.417       .  A
C1174      F1175   1.357       .  S
C1179      C1180   1.406       .  A
C1179      C1184   1.394       .  A
C1179      F1186   1.358       .  S
C1180      C1181   1.408       .  A
C1181      C1182   1.399       .  A
C1181      F1188   1.358       .  S
C1182      C1183   1.411       .  A
C1182      F1187   1.358       .  S
C1183      C1184   1.411       .  A
C1184      F1185   1.358       .  S
C1189      N1190   1.355       .  A
C1189      N1194   1.369       .  A
C1189      C1767   1.494       .  S
N1190      C1785   1.352       .  A
C1191      N1784   1.355   1_545  A
C1191      N1192   1.355       .  A
C1191      C1774   1.485       .  S
N1192      C1787   1.357   1_545  A
C1193      N1786   1.359       .  A
C1193      N1194   1.370       .  A
C1193      C1997   1.480       .  S
C1195      N1196   1.357       .  A
C1195      N1200   1.363       .  A
C1195      C1754   1.477       .  S
N1196      C1197   1.357       .  A
C1197      N1198   1.356       .  A
C1197      C1777   1.489       .  S
N1198      C1199   1.354       .  A
C1199      N1200   1.363       .  A
C1199      C1274   1.462       .  S
C1201      N1202   1.365       .  A
C1201      N1206   1.364       .  A
C1201      C1734   1.476       .  S
N1202      C1203   1.357       .  A
C1203      N1204   1.351       .  A
C1203      C1404   1.462       .  S
N1204      C1205   1.349       .  A
C1205      N1206   1.359       .  A
C1207      N1208   1.363       .  A
C1207      N1212   1.369       .  A
C1207      C2318   1.491   1_545  S
N1208      C1209   1.360       .  A
C1209      N1210   1.352       .  A
C1209      C1747   1.487       .  S
N1210      C1211   1.350       .  A
C1211      N1212   1.363       .  A
C1211      C1267   1.467       .  S
C1213      N1218   1.354       .  A
C1213      C1704   1.483       .  S
N1214      C1215   1.369   1_455  A
C1215      N1216   1.354       .  A
C1215      C1259   1.475       .  S
N1216      C1217   1.345       .  A
C1217      C1714   1.478       .  S
C1219      N1220   1.363       .  A
C1219      N1224   1.371       .  A
C1219      C1694   1.494       .  S
N1220      C1221   1.359       .  A
C1221      N1222   1.351       .  A
C1221      C1717   1.472       .  S
N1222      C1223   1.347       .  A
C1223      N1224   1.366       .  A
C1223      C1405   1.467       .  S
C1225      C1764   1.492       .  S
C1225      C1226   1.423       .  A
C1225      C1230   1.412       .  A
C1226      C1727   1.489       .  S
C1226      C1227   1.424       .  A
C1227      C1697   1.493       .  S
C1227      C1228   1.414       .  A
C1228      C1757   1.488       .  S
C1228      C1229   1.405       .  A
C1229      C1737   1.482       .  S
C1229      C1230   1.407       .  A
C1230      C1707   1.489       .  S
Zr1231     O1232   2.445       .  S
Zr1231     O1233   2.458       .  S
Zr1231     O1234   2.419       .  S
Zr1231     O1237   2.421       .  S
Zr1231     O1239   2.378       .  S
Zr1231     O1240   2.380       .  S
Zr1231     O1241   2.416       .  S
Zr1231     O1242   2.394       .  S
O1232      H1288   0.990       .  S
O1232      H1296   0.991       .  S
O1233      C1253   1.287       .  A
O1234      C1255   1.279       .  A
O1235     Zr1245   2.452       .  S
O1235      C1254   1.286       .  A
O1236     Zr1244   2.447       .  S
O1236      C1255   1.285       .  A
O1237      C1254   1.283       .  A
O1238     Zr1246   2.410       .  S
O1238      C1253   1.274       .  A
O1239     Zr1244   2.408       .  S
O1239     Zr1246   2.385       .  S
O1240     Zr1245   2.394       .  S
O1240     Zr1246   2.385       .  S
O1240      H1275   0.966       .  S
O1241     Zr1244   2.403       .  S
O1241     Zr1261   2.406       .  S
O1241      H1278   0.965       .  S
O1242     Zr1245   2.384       .  S
O1242     Zr1261   2.386       .  S
Zr1243     O1268   2.449       .  S
Zr1243     O1262   2.435       .  S
Zr1243     O1270   2.428       .  S
Zr1243     O1258   2.422       .  S
Zr1243     O1249   2.395       .  S
Zr1243     O1250   2.397       .  S
Zr1243     O1251   2.377       .  S
Zr1243     O1252   2.376       .  S
Zr1244     O1263   2.435       .  S
Zr1244     O1256   2.435       .  S
Zr1244     O1257   2.459       .  S
Zr1244     O1250   2.404       .  S
Zr1244     O1251   2.395       .  S
Zr1245     O1247   2.436       .  S
Zr1245     O1269   2.435       .  S
Zr1245     O1271   2.441       .  S
Zr1245     O1249   2.395       .  S
Zr1245     O1252   2.394       .  S
Zr1246     O1272   2.437       .  S
Zr1246     O1273   2.435       .  S
Zr1246     O1248   2.435       .  S
Zr1246     O1249   2.394       .  S
Zr1246     O1250   2.382       .  S
O1247      H1284   0.990       .  S
O1248      H1279   0.990       .  S
O1248      H1293   0.990       .  S
O1250      H1276   0.965       .  S
O1251     Zr1261   2.377       .  S
O1252     Zr1261   2.376       .  S
O1252      H1277   0.965       .  S
C1253      C1317   1.466       .  S
C1254      C1307   1.467       .  S
C1255      C1331   1.458       .  S
O1256      H1292   0.990       .  S
O1257      C1259   1.287       .  A
O1258      C1259   1.285       .  A
O1260     Zr1261   2.440       .  S
O1260      H1289   0.990       .  S
Zr1261     O1264   2.438       .  S
Zr1261     O1265   2.439       .  S
Zr1261     O1266   2.436       .  S
O1262      C1267   1.285       .  A
O1263      H1280   0.990       .  S
O1263      H1295   0.990       .  S
O1264      H1281   0.990       .  S
O1265      H1285   0.990       .  S
O1265      H1294   0.990       .  S
O1266      C1267   1.283       .  A
O1268      H1287   0.990       .  S
O1268      H1291   0.990       .  S
O1269      H1283   0.990       .  S
O1269      H1290   0.990       .  S
O1270      C1274   1.283       .  A
O1271      C1274   1.286       .  A
O1272      H1282   0.990       .  S
O1273      H1286   0.990       .  S
C1297      N1298   1.360       .  A
C1297      N1302   1.368       .  A
C1297      C1677   1.468       .  S
N1298      C1299   1.354       .  A
C1299      N1300   1.350       .  A
C1299      C1687   1.487       .  S
N1300      C1301   1.357       .  A
C1301      N1302   1.361       .  A
C1301      C1475   1.471       .  S
C1303      N1304   1.359       .  A
C1303      N1308   1.363       .  A
C1303      C1667   1.475       .  S
N1304      C1305   1.356       .  A
C1305      N1306   1.354       .  A
C1305      C1684   1.489       .  S
N1306      C1307   1.358       .  A
C1307      N1308   1.361       .  A
C1309      N1310   1.360       .  A
C1309      N1314   1.368       .  A
C1309      C1644   1.490       .  S
N1310      C1311   1.360       .  A
C1311      N1312   1.354       .  A
C1311      C1654   1.489       .  S
N1312      C1313   1.353       .  A
C1313      N1314   1.365       .  A
C1313      C1483   1.472       .  S
C1315      N1316   1.368       .  A
C1315      N1320   1.362       .  A
C1315      C1634   1.491       .  S
N1316      C1317   1.365       .  A
C1317      N1318   1.350       .  A
N1318      C1319   1.351       .  A
C1319      N1320   1.358       .  A
C1319      C1657   1.489       .  S
C1321      N1322   1.365       .  A
C1321      N1326   1.353       .  A
C1321      C1617   1.473       .  S
N1322      C1323   1.365       .  A
C1323      N1324   1.353       .  A
C1323      C1490   1.456       .  S
N1324      C1325   1.351       .  A
C1325      N1326   1.349       .  A
C1325      C1624   1.471       .  S
C1327      N1332   1.366       .  A
C1327      C1604   1.482       .  S
C1329      N1330   1.352   1_455  A
N1330      C1331   1.353       .  A
C1331      N1332   1.367       .  A
C1333      C1647   1.494       .  S
C1333      C1334   1.414       .  A
C1333      C1338   1.407       .  A
C1334      C1607   1.476       .  S
C1335      C2268   1.486   1_445  S
C1336      C1337   1.410       .  A
C1337      C1614   1.476       .  S
C1337      C1932   1.409       .  A
C1338      C1664   1.481       .  S
C1338      C1931   1.410   1_545  A
C1339      N1340   1.365       .  A
C1339      N1344   1.358       .  A
C1339      C1584   1.482       .  S
N1340      C1341   1.365       .  A
C1341      N1342   1.355       .  A
C1341      C1471   1.472       .  S
N1342      C1343   1.358       .  A
C1343      N1344   1.357       .  A
C1343      C1597   1.490       .  S
C1345      N1346   1.368       .  A
C1345      N1350   1.358       .  A
C1345      C1574   1.492       .  S
N1346      C1347   1.368       .  A
C1347      N1348   1.357       .  A
C1347      C1417   1.476       .  S
N1348      C1349   1.356       .  A
C1349      N1350   1.356       .  A
C1349      C2188   1.487   1_545  S
C1351      N1946   1.361   1_545  A
C1351      N1950   1.362   1_545  A
C1351      C1554   1.479       .  S
N1352      C1945   1.358       .  A
N1352      C1353   1.359       .  A
C1353      N1354   1.356       .  A
C1353      C1564   1.486       .  S
N1354      C1355   1.356       .  A
C1355      N1356   1.362       .  A
C1355      C1469   1.466       .  S
N1356      C1945   1.364       .  A
C1357      N1362   1.365       .  A
C1357      C1544   1.469       .  S
N1358      C1359   1.354       .  A
C1359      N1360   1.350       .  A
C1359      C1567   1.483       .  S
N1360      C1361   1.355       .  A
C1361      C1409   1.467       .  S
C1363      N1364   1.365       .  A
C1363      N1368   1.358       .  A
C1363      C1527   1.479       .  S
N1364      C1365   1.362       .  A
C1365      N1366   1.349       .  A
C1365      C1424   1.456       .  S
N1366      C1367   1.350       .  A
C1367      N1368   1.357       .  A
C1367      C1537   1.484       .  S
C1369      N1370   1.359       .  A
C1369      N1374   1.372       .  A
C1369      C1514   1.480       .  S
N1370      C1371   1.352       .  A
C1371      N1372   1.345       .  A
C1371      C1534   1.480       .  S
N1372      C1373   1.351       .  A
C1373      N1374   1.366       .  A
C1373      C1470   1.473       .  S
C1375      C1587   1.491       .  S
C1375      C1376   1.409       .  A
C1375      C1380   1.406       .  A
C1376      C1524   1.485       .  S
C1376      C1377   1.419       .  A
C1377      C1557   1.480       .  S
C1377      C1378   1.418       .  A
C1378      C1577   1.495       .  S
C1378      C1379   1.412       .  A
C1379      C1517   1.487       .  S
C1379      C1380   1.409       .  A
C1380      C1547   1.478       .  S
Zr1381     O1383   2.465       .  S
Zr1381     O1387   2.409       .  S
Zr1381     O1983   2.374   1_545  S
Zr1381     O1390   2.381       .  S
Zr1381     O1392   2.399       .  S
O1382      H1438   0.991   1_445  S
O1382      H1446   0.991   1_455  S
O1383      C1403   1.290   1_545  A
O1384      C1405   1.280       .  A
O1385     Zr1395   2.450   1_554  S
O1385      C1404   1.285       .  A
O1386     Zr1394   2.454   1_554  S
O1386      C1405   1.287       .  A
O1387      C1404   1.281       .  A
O1388     Zr1396   2.419   1_554  S
O1388      C1403   1.277       .  A
O1389     Zr1975   2.382       .  S
O1389     Zr1990   2.382   1_554  S
O1390     Zr1395   2.398   1_554  S
O1390     Zr1396   2.379   1_544  S
O1390      H1425   0.967       .  S
O1391     Zr1394   2.402   1_554  S
O1391     Zr2005   2.401   1_554  S
O1391      H1428   0.965       .  S
O1392     Zr1395   2.389   1_554  S
Zr1393     O1418   2.444       .  S
Zr1393     O1412   2.457       .  S
Zr1393     O1420   2.419       .  S
Zr1393     O2002   2.411   1_545  S
Zr1393     O1399   2.403       .  S
Zr1393     O1994   2.412   1_545  S
Zr1393     O1995   2.370   1_545  S
Zr1393     O1402   2.379       .  S
Zr1394     O1413   2.435       .  S
Zr1394     O1407   2.464       .  S
Zr1395     O1397   2.435       .  S
Zr1395     O1419   2.438   1_556  S
Zr1395     O1421   2.438       .  S
Zr1395     O1399   2.393       .  S
Zr1395     O1402   2.406       .  S
Zr1396     O1422   2.436   1_566  S
Zr1396     O1423   2.435       .  S
Zr1396     O1992   2.437       .  S
Zr1396     O1983   2.384   1_556  S
Zr1396     O1399   2.399   1_565  S
Zr1396     O1994   2.381       .  S
O1397      H1434   0.990       .  S
O1398     Zr1990   2.436       .  S
O1398      H1429   0.990       .  S
O1398      H1443   0.990   1_556  S
O1400     Zr1987   2.414       .  S
O1400     Zr1990   2.384       .  S
O1400      H1426   0.964       .  S
O1401     Zr1987   2.372       .  S
O1402      H1427   0.972       .  S
C1403      C1787   1.478       .  S
O1406      H1442   0.990       .  S
O1408     Zr1987   2.415       .  S
O1408      C1409   1.280       .  A
O1410     Zr1411   2.441   1_554  S
O1410      H1439   0.990       .  S
Zr1411     O2008   2.438       .  S
Zr1411     O1415   2.439       .  S
Zr1411     O1416   2.425       .  S
Zr1411     O1985   2.398   1_546  S
O1413      H1430   0.990       .  S
O1413      H1445   0.990       .  S
O1414     Zr2005   2.437       .  S
O1414      H1431   0.990       .  S
O1415      H1435   0.990   1_655  S
O1416      C1417   1.280       .  A
O1418      H1437   0.991       .  S
O1418      H2035   0.990       .  S
O1419      H1433   0.990   1_554  S
O1419      H1440   0.990       .  S
O1420      C1424   1.279       .  A
O1421      C1424   1.285       .  A
O1422      H1432   0.990       .  S
O1423      H2030   0.990       .  S
H1436      O2017   0.990       .  S
H1441      O2012   0.991       .  S
Zr1447     O1448   2.444       .  S
Zr1447     O1449   2.442       .  S
Zr1447     O1450   2.446       .  S
Zr1447     O1453   2.421       .  S
Zr1447     O1455   2.383       .  S
Zr1447     O1456   2.381       .  S
Zr1447     O1457   2.412       .  S
Zr1447     O1458   2.396       .  S
O1448      H1504   0.990       .  S
O1448      H1512   0.990       .  S
O1449      C1469   1.283       .  A
O1450      C1471   1.284       .  A
O1451     Zr1461   2.446       .  S
O1451      C1470   1.284       .  A
O1452     Zr1460   2.450       .  S
O1452      C1471   1.287       .  A
O1453      C1470   1.285       .  A
O1454     Zr1462   2.426       .  S
O1454      C1469   1.280       .  A
O1455     Zr1460   2.412       .  S
O1455     Zr1462   2.384       .  S
O1456     Zr1461   2.395       .  S
O1456     Zr1462   2.377       .  S
O1456      H1491   0.964       .  S
O1457     Zr1460   2.411       .  S
O1457     Zr1477   2.400       .  S
O1457      H1494   0.965       .  S
O1458     Zr1461   2.397       .  S
O1458     Zr1477   2.392       .  S
Zr1459     O1484   2.446       .  S
Zr1459     O1478   2.447       .  S
Zr1459     O1486   2.417       .  S
Zr1459     O1474   2.396       .  S
Zr1459     O1465   2.404       .  S
Zr1459     O1466   2.410       .  S
Zr1459     O1467   2.373       .  S
Zr1459     O1468   2.375       .  S
Zr1460     O1479   2.434       .  S
Zr1460     O1472   2.434       .  S
Zr1460     O1473   2.480       .  S
Zr1460     O1466   2.397       .  S
Zr1460     O1467   2.400       .  S
Zr1461     O1463   2.433       .  S
Zr1461     O1485   2.436       .  S
Zr1461     O1487   2.436       .  S
Zr1461     O1465   2.398       .  S
Zr1461     O1468   2.406       .  S
Zr1462     O1488   2.436       .  S
Zr1462     O1489   2.437       .  S
Zr1462     O1464   2.438       .  S
Zr1462     O1465   2.404       .  S
Zr1462     O1466   2.378       .  S
O1463      H1500   0.990       .  S
O1464      H1495   0.990       .  S
O1464      H1509   0.990       .  S
O1466      H1492   0.965       .  S
O1467     Zr1477   2.384       .  S
O1468     Zr1477   2.382       .  S
O1468      H1493   0.966       .  S
O1472      H1508   0.989       .  S
O1473      C1475   1.291       .  A
O1474      C1475   1.278       .  A
O1476     Zr1477   2.435       .  S
O1476      H1505   0.990       .  S
Zr1477     O1480   2.436       .  S
Zr1477     O1481   2.437       .  S
Zr1477     O1482   2.428       .  S
O1478      C1483   1.285       .  A
O1479      H1496   0.990       .  S
O1479      H1511   0.990       .  S
O1480      H1497   0.990       .  S
O1481      H1501   0.990       .  S
O1481      H1510   0.989       .  S
O1482      C1483   1.279       .  A
O1484      H1503   0.991       .  S
O1484      H1507   0.991       .  S
O1485      H1499   0.990       .  S
O1485      H1506   0.990       .  S
O1486      C1490   1.278       .  A
O1487      C1490   1.282       .  A
O1488      H1498   0.990       .  S
O1489      H1502   0.990       .  S
C1513      C1514   1.413       .  A
C1513      F1520   1.358       .  S
C1515      C1516   1.402       .  A
C1515      F1522   1.357       .  S
C1516      C1517   1.407       .  A
C1516      F1521   1.358       .  S
C1517      C1518   1.399       .  A
C1518      F1519   1.357       .  S
C1523      C1524   1.406       .  A
C1523      C1528   1.398       .  A
C1523      F1530   1.358       .  S
C1524      C1525   1.404       .  A
C1525      C1526   1.404       .  A
C1525      F1532   1.357       .  S
C1526      C1527   1.411       .  A
C1526      F1531   1.358       .  S
C1527      C1528   1.403       .  A
C1528      F1529   1.358       .  S
C1533      C1534   1.405       .  A
C1533      C1538   1.394       .  A
C1533      F1540   1.358       .  S
C1534      C1535   1.411       .  A
C1535      C1536   1.392       .  A
C1535      F1542   1.358       .  S
C1536      C1537   1.407       .  A
C1536      F1541   1.358       .  S
C1537      C1538   1.414       .  A
C1538      F1539   1.358       .  S
C1543      C1544   1.401       .  A
C1543      C1548   1.394       .  A
C1543      F1550   1.358       .  S
C1544      C1545   1.409       .  A
C1545      C1546   1.399       .  A
C1545      F1552   1.358       .  S
C1546      C1547   1.400       .  A
C1546      F1551   1.357       .  S
C1547      C1548   1.406       .  A
C1548      F1549   1.358       .  S
C1553      C1554   1.406       .  A
C1553      C1558   1.395       .  A
C1553      F1560   1.358       .  S
C1554      C1555   1.410       .  A
C1555      C1556   1.403       .  A
C1555      F1562   1.358       .  S
C1556      C1557   1.403       .  A
C1556      F1561   1.357       .  S
C1557      C1558   1.404       .  A
C1558      F1559   1.358       .  S
C1563      C1564   1.408       .  A
C1563      C1568   1.394       .  A
C1563      F1570   1.358       .  S
C1564      C1565   1.411       .  A
C1565      C1566   1.401       .  A
C1565      F1572   1.358       .  S
C1566      C1567   1.407       .  A
C1566      F1571   1.358       .  S
C1567      C1568   1.408       .  A
C1568      F1569   1.356       .  S
C1573      C1574   1.408       .  A
C1573      C1578   1.406       .  A
C1573      F1580   1.357       .  S
C1574      C1575   1.412       .  A
C1575      C1576   1.402       .  A
C1575      F1582   1.358       .  S
C1576      C1577   1.403       .  A
C1576      F1581   1.356       .  S
C1577      C1578   1.408       .  A
C1578      F1579   1.358       .  S
C1583      C1584   1.404       .  A
C1583      C1588   1.401       .  A
C1583      F1590   1.358       .  S
C1584      C1585   1.410       .  A
C1585      C1586   1.403       .  A
C1585      F1592   1.358       .  S
C1586      C1587   1.404       .  A
C1586      F1591   1.357       .  S
C1587      C1588   1.407       .  A
C1588      F1589   1.358       .  S
C1593      C1594   1.410       .  A
C1593      C1598   1.399       .  A
C1593      F1600   1.358       .  S
C1594      C1943   1.488       .  S
C1594      C1595   1.409       .  A
C1595      C1596   1.396       .  A
C1595      F1602   1.358       .  S
C1596      C1597   1.410       .  A
C1596      F1601   1.358       .  S
C1597      C1598   1.412       .  A
C1598      F1599   1.358       .  S
C1603      C1608   1.400       .  A
C1603      F1610   1.357       .  S
C1604      C1605   1.414   1_655  A
C1605      C1606   1.396       .  A
C1605      F1612   1.358   1_455  S
C1606      F1611   1.357       .  S
C1607      C1608   1.406       .  A
C1608      F1609   1.358       .  S
C1613      C1614   1.407       .  A
C1613      C1618   1.399       .  A
C1613      F1620   1.358       .  S
C1614      C1615   1.396       .  A
C1615      C1616   1.395       .  A
C1615      F1622   1.357       .  S
C1616      C1617   1.412       .  A
C1616      F1621   1.358       .  S
C1617      C1618   1.403       .  A
C1618      F1619   1.358       .  S
C1623      C1624   1.408       .  A
C1623      C1628   1.392       .  A
C1623      F1630   1.358       .  S
C1624      C1625   1.407       .  A
C1625      C1626   1.390       .  A
C1625      F1632   1.358       .  S
C1626      C1627   1.407       .  A
C1626      F1631   1.359       .  S
C1627      C1628   1.406       .  A
C1633      C1634   1.408       .  A
C1633      C1638   1.405       .  A
C1633      F1640   1.358       .  S
C1634      C1635   1.412       .  A
C1635      C1636   1.403       .  A
C1635      F1642   1.357       .  S
C1636      C1637   1.402       .  A
C1636      F1641   1.357       .  S
C1637      C1638   1.409       .  A
C1643      C1644   1.405       .  A
C1643      C1648   1.401       .  A
C1643      F1650   1.357       .  S
C1644      C1645   1.413       .  A
C1645      C1646   1.408       .  A
C1645      F1652   1.358       .  S
C1646      C1647   1.405       .  A
C1646      F1651   1.357       .  S
C1647      C1648   1.406       .  A
C1648      F1649   1.358       .  S
C1653      C1654   1.413       .  A
C1653      C1658   1.399       .  A
C1653      F1660   1.358       .  S
C1654      C1655   1.408       .  A
C1655      C1656   1.395       .  A
C1655      F1662   1.358       .  S
C1656      C1657   1.413       .  A
C1656      F1661   1.358       .  S
C1657      C1658   1.409       .  A
C1658      F1659   1.358       .  S
C1663      C1664   1.400       .  A
C1663      C1668   1.400       .  A
C1663      F1670   1.357       .  S
C1664      C1665   1.407       .  A
C1665      C1666   1.398       .  A
C1665      F1672   1.358       .  S
C1666      C1667   1.403       .  A
C1666      F1671   1.358       .  S
C1667      C1668   1.409       .  A
C1668      F1669   1.358       .  S
C1673      C1674   1.402       .  A
C1673      C1678   1.401       .  A
C1673      F1680   1.357       .  S
C1674      C1929   1.478   1_655  S
C1674      C2269   1.406       .  A
C1675      C2268   1.407       .  A
C1675      C1676   1.400       .  A
C1675      F1682   1.358   1_565  S
C1676      C2271   1.403       .  A
C1676      F1681   1.358       .  S
C1677      C2270   1.401       .  A
C1677      C1678   1.408       .  A
C1678      F1679   1.358       .  S
C1683      C1684   1.412       .  A
C1683      C1688   1.401       .  A
C1683      F1690   1.358       .  S
C1684      C1685   1.407       .  A
C1685      C2280   1.396   1_545  A
C1685      F1692   1.358       .  S
C1686      C2279   1.398       .  A
C1686      C1687   1.412       .  A
C1686      F1691   1.358       .  S
C1687      C2282   1.407       .  A
C1688      C2281   1.409   1_545  A
C1688      F1689   1.358   1_545  S
C1693      C1694   1.406       .  A
C1693      C1698   1.401       .  A
C1693      F1700   1.357       .  S
C1694      C1695   1.414       .  A
C1695      C1696   1.406       .  A
C1695      F1702   1.358       .  S
C1696      C1697   1.405       .  A
C1696      F1701   1.357       .  S
C1697      C1698   1.407       .  A
C1698      F1699   1.357       .  S
C1703      C1704   1.415       .  A
C1703      C1708   1.400       .  A
C1703      F1710   1.358       .  S
C1704      C1705   1.404       .  A
C1705      C1706   1.402       .  A
C1705      F1712   1.357       .  S
C1706      C1707   1.408       .  A
C1706      F1711   1.357       .  S
C1707      C1708   1.400       .  A
C1708      F1709   1.358       .  S
C1713      C1714   1.412       .  A
C1713      C1718   1.399       .  A
C1713      F1720   1.357       .  S
C1714      C1715   1.405       .  A
C1715      C1716   1.391       .  A
C1716      C1717   1.408       .  A
C1716      F1721   1.359       .  S
C1717      C1718   1.403       .  A
C1718      F1719   1.358       .  S
C1723      C1724   1.407       .  A
C1723      C1728   1.402       .  A
C1723      F1730   1.358       .  S
C1724      C1801   1.489       .  S
C1724      C1725   1.413       .  A
C1725      C1726   1.404       .  A
C1725      F1732   1.358       .  S
C1726      C1727   1.402       .  A
C1726      F1731   1.356       .  S
C1727      C1728   1.407       .  A
C1728      F1729   1.358       .  S
C1733      C1734   1.410       .  A
C1733      C1738   1.400       .  A
C1733      F1740   1.358       .  S
C1734      C1735   1.404       .  A
C1735      C1736   1.395       .  A
C1735      F1742   1.358       .  S
C1736      C1737   1.405       .  A
C1736      F1741   1.358       .  S
C1737      C1738   1.401       .  A
C1738      F1739   1.357       .  S
C1743      C1744   1.415       .  A
C1743      C1748   1.398       .  A
C1743      F1750   1.358       .  S
C1744      C1745   1.405       .  A
C1745      C1746   1.397       .  A
C1746      C1747   1.414       .  A
C1746      F1751   1.358       .  S
C1747      C1748   1.405       .  A
C1748      F1749   1.358       .  S
C1753      C1754   1.403       .  A
C1753      C1758   1.400       .  A
C1753      F1760   1.358       .  S
C1754      C1755   1.408       .  A
C1755      C1756   1.403       .  A
C1755      F1762   1.358       .  S
C1756      C1757   1.403       .  A
C1756      F1761   1.356       .  S
C1757      C1758   1.407       .  A
C1758      F1759   1.358       .  S
C1763      C1764   1.399       .  A
C1763      C1768   1.399       .  A
C1763      F1770   1.357       .  S
C1764      C1765   1.410       .  A
C1765      C1766   1.407       .  A
C1765      F1772   1.358       .  S
C1766      C1767   1.408       .  A
C1766      F1771   1.358       .  S
C1767      C1768   1.415       .  A
C1768      F1769   1.357       .  S
C1773      C1774   1.410       .  A
C1773      C1778   1.399       .  A
C1773      F1780   1.358       .  S
C1774      C1775   1.407       .  A
C1775      C1776   1.394       .  A
C1775      F1782   1.358       .  S
C1776      C1777   1.411       .  A
C1776      F1781   1.358       .  S
C1777      C1778   1.412       .  A
C1778      F1779   1.358       .  S
C1783      N1784   1.355       .  A
C1783      N1788   1.370       .  A
C1783      C2361   1.497       .  S
C1785      N1786   1.357       .  A
C1785      C2368   1.484       .  S
C1787      N1788   1.372       .  A
C1789      N1790   1.355       .  A
C1789      N1794   1.363       .  A
C1789      C2348   1.485       .  S
N1790      C1791   1.356       .  A
C1791      N1792   1.359       .  A
C1791      C2371   1.489       .  S
N1792      C1793   1.357       .  A
C1793      N1794   1.365       .  A
C1793      C1868   1.466       .  S
C1795      N1796   1.368       .  A
C1795      N1800   1.362       .  A
C1795      C2328   1.482       .  S
N1796      C1797   1.363       .  A
C1797      N1798   1.352       .  A
C1797      C1998   1.470       .  S
N1798      C1799   1.351       .  A
C1799      N1800   1.359       .  A
C1801      N1802   1.360       .  A
C1801      N1806   1.367       .  A
N1802      C1803   1.359       .  A
C1803      N1804   1.353       .  A
C1803      C2341   1.489       .  S
N1804      C1805   1.354       .  A
C1805      N1806   1.364       .  A
C1805      C1861   1.466       .  S
C1807      N1812   1.356       .  A
C1807      C2298   1.481       .  S
N1808      C1809   1.367   1_455  A
C1809      N1810   1.355       .  A
C1809      C1853   1.472       .  S
N1810      C1811   1.346       .  A
C1811      C2308   1.476       .  S
C1813      N1814   1.364       .  A
C1813      N1818   1.368       .  A
C1813      C2288   1.489       .  S
N1814      C1815   1.361       .  A
C1815      N1816   1.349       .  A
C1815      C2311   1.474       .  S
N1816      C1817   1.346       .  A
C1817      N1818   1.363       .  A
C1817      C1999   1.458       .  S
C1819      C2358   1.498       .  S
C1819      C1820   1.422       .  A
C1819      C1824   1.414       .  A
C1820      C2321   1.491       .  S
C1820      C1821   1.425       .  A
C1821      C2291   1.490       .  S
C1821      C1822   1.416       .  A
C1822      C2351   1.493       .  S
C1822      C1823   1.406       .  A
C1823      C2331   1.489       .  S
C1823      C1824   1.409       .  A
C1824      C2301   1.483       .  S
Zr1825     O1826   2.446       .  S
Zr1825     O1827   2.455       .  S
Zr1825     O1828   2.425       .  S
Zr1825     O1831   2.420       .  S
Zr1825     O1833   2.380       .  S
Zr1825     O1834   2.382       .  S
Zr1825     O1835   2.417       .  S
Zr1825     O1836   2.396       .  S
O1826      H1882   0.991       .  S
O1826      H1890   0.991       .  S
O1827      C1847   1.286       .  A
O1828      C1849   1.279       .  A
O1829     Zr1839   2.454       .  S
O1829      C1848   1.286       .  A
O1830     Zr1838   2.429       .  S
O1830      C1849   1.282       .  A
O1831      C1848   1.283       .  A
O1832     Zr1840   2.425       .  S
O1832      C1847   1.279       .  A
O1833     Zr1838   2.411       .  S
O1833     Zr1840   2.386       .  S
O1834     Zr1839   2.397       .  S
O1834     Zr1840   2.384       .  S
O1834      H1869   0.965       .  S
O1835     Zr1838   2.408       .  S
O1835     Zr1855   2.402       .  S
O1835      H1872   0.965       .  S
O1836     Zr1839   2.387       .  S
O1836     Zr1855   2.382       .  S
Zr1837     O1862   2.448       .  S
Zr1837     O1856   2.435       .  S
Zr1837     O1864   2.421       .  S
Zr1837     O1852   2.416       .  S
Zr1837     O1843   2.396       .  S
Zr1837     O1844   2.399       .  S
Zr1837     O1845   2.370       .  S
Zr1837     O1846   2.379       .  S
Zr1838     O1857   2.436       .  S
Zr1838     O1850   2.435       .  S
Zr1838     O1851   2.455       .  S
Zr1838     O1844   2.399       .  S
Zr1838     O1845   2.390       .  S
Zr1839     O1841   2.435       .  S
Zr1839     O1863   2.437       .  S
Zr1839     O1865   2.450       .  S
Zr1839     O1843   2.392       .  S
Zr1839     O1846   2.398       .  S
Zr1840     O1866   2.437       .  S
Zr1840     O1867   2.435       .  S
Zr1840     O1842   2.436       .  S
Zr1840     O1843   2.398       .  S
Zr1840     O1844   2.390       .  S
O1841      H1878   0.990       .  S
O1842      H1873   0.990       .  S
O1842      H1887   0.990       .  S
O1844      H1870   0.965       .  S
O1845     Zr1855   2.378       .  S
O1846     Zr1855   2.376       .  S
O1846      H1871   0.966       .  S
C1847      C1911   1.471       .  S
C1848      C1901   1.467       .  S
C1849      C1925   1.450       .  S
O1850      H1886   0.990       .  S
O1851      C1853   1.286       .  A
O1852      C1853   1.283       .  A
O1854     Zr1855   2.439       .  S
O1854      H1883   0.990       .  S
Zr1855     O1858   2.438       .  S
Zr1855     O1859   2.438       .  S
Zr1855     O1860   2.431       .  S
O1856      C1861   1.285       .  A
O1857      H1874   0.990       .  S
O1857      H1889   0.990       .  S
O1858      H1875   0.990       .  S
O1859      H1879   0.990       .  S
O1859      H1888   0.990       .  S
O1860      C1861   1.282       .  A
O1862      H1881   0.991       .  S
O1862      H1885   0.990       .  S
O1863      H1877   0.990       .  S
O1863      H1884   0.990       .  S
O1864      C1868   1.282       .  A
O1865      C1868   1.287       .  A
O1866      H1876   0.990       .  S
O1867      H1880   0.990       .  S
C1891      N1892   1.360       .  A
C1891      N1896   1.372       .  A
C1891      C2271   1.479       .  S
N1892      C1893   1.354       .  A
C1893      N1894   1.351       .  A
C1893      C2281   1.490       .  S
N1894      C1895   1.357       .  A
C1895      N1896   1.365       .  A
C1895      C2069   1.480       .  S
C1897      N1898   1.361       .  A
C1897      N1902   1.365       .  A
C1897      C2261   1.476       .  S
N1898      C1899   1.358       .  A
C1899      N1900   1.351       .  A
C1899      C2278   1.486       .  S
N1900      C1901   1.354       .  A
C1901      N1902   1.360       .  A
C1903      N1904   1.362       .  A
C1903      N1908   1.369       .  A
C1903      C2238   1.489       .  S
N1904      C1905   1.360       .  A
C1905      N1906   1.353       .  A
C1905      C2248   1.493       .  S
N1906      C1907   1.352       .  A
C1907      N1908   1.365       .  A
C1907      C2077   1.470       .  S
C1909      N1910   1.368       .  A
C1909      N1914   1.362       .  A
C1909      C2228   1.496       .  S
N1910      C1911   1.365       .  A
C1911      N1912   1.354       .  A
N1912      C1913   1.354       .  A
C1913      N1914   1.359       .  A
C1913      C2251   1.494       .  S
C1915      N1916   1.365       .  A
C1915      N1920   1.351       .  A
C1915      C2211   1.473       .  S
N1916      C1917   1.366       .  A
C1917      N1918   1.355       .  A
C1917      C2084   1.459       .  S
N1918      C1919   1.352       .  A
C1919      N1920   1.347       .  A
C1919      C2218   1.468       .  S
C1921      N1926   1.363       .  A
C1921      C2198   1.474       .  S
C1923      N1924   1.350       .  A
N1924      C1925   1.351   1_455  A
C1925      N1926   1.363       .  A
C1927      C2241   1.492       .  S
C1927      C1928   1.411       .  A
C1927      C1932   1.407       .  A
C1928      C2201   1.479       .  S
C1930      C1931   1.409       .  A
C1931      C2208   1.476       .  S
C1932      C2258   1.479       .  S
C1933      N1934   1.364       .  A
C1933      N1938   1.356       .  A
C1933      C2178   1.481       .  S
N1934      C1935   1.365       .  A
C1935      N1936   1.357       .  A
C1935      C2065   1.473       .  S
N1936      C1937   1.359       .  A
C1937      N1938   1.357       .  A
C1937      C2191   1.490       .  S
C1939      N1940   1.368       .  A
C1939      N1944   1.357       .  A
C1939      C2168   1.492       .  S
N1940      C1941   1.368       .  A
C1941      N1942   1.358       .  A
C1941      C2011   1.480       .  S
N1942      C1943   1.356       .  A
C1943      N1944   1.356       .  A
C1945      C2148   1.487       .  S
N1946      C1947   1.360       .  A
C1947      N1948   1.355       .  A
C1947      C2158   1.493       .  S
N1948      C1949   1.353       .  A
C1949      N1950   1.357       .  A
C1949      C2063   1.462       .  S
C1951      N1956   1.367       .  A
C1951      C2138   1.476       .  S
N1952      C1953   1.357       .  A
C1953      N1954   1.349       .  A
C1953      C2161   1.492       .  S
N1954      C1955   1.354       .  A
C1955      C2003   1.464       .  S
C1957      N1958   1.366       .  A
C1957      N1962   1.359       .  A
C1957      C2121   1.482       .  S
N1958      C1959   1.364       .  A
C1959      N1960   1.350       .  A
C1959      C2018   1.459       .  S
N1960      C1961   1.350       .  A
C1961      N1962   1.357       .  A
C1961      C2131   1.476       .  S
C1963      N1964   1.363       .  A
C1963      N1968   1.374       .  A
C1963      C2108   1.489       .  S
N1964      C1965   1.354       .  A
C1965      N1966   1.343       .  A
C1965      C2128   1.470       .  S
N1966      C1967   1.349       .  A
C1967      N1968   1.366       .  A
C1967      C2064   1.475       .  S
C1969      C2181   1.490       .  S
C1969      C1970   1.413       .  A
C1969      C1974   1.407       .  A
C1970      C2118   1.485       .  S
C1970      C1971   1.418       .  A
C1971      C2151   1.485       .  S
C1971      C1972   1.416       .  A
C1972      C2171   1.492       .  S
C1972      C1973   1.412       .  A
C1973      C2111   1.484       .  S
C1973      C1974   1.409       .  A
C1974      C2141   1.484       .  S
Zr1975     O1977   2.459       .  S
Zr1975     O1981   2.431       .  S
Zr1975     O1984   2.378       .  S
Zr1975     O1986   2.401       .  S
O1976      H2032   0.991       .  S
O1976      H2040   0.990   1_455  S
O1977      C1997   1.288       .  A
O1978      C1999   1.280       .  A
O1979     Zr1989   2.447   1_554  S
O1979      C1998   1.285       .  A
O1980     Zr1988   2.442   1_554  S
O1980      C1999   1.285       .  A
O1981      C1998   1.285       .  A
O1982     Zr1990   2.429   1_554  S
O1982      C1997   1.280       .  A
O1984     Zr1989   2.397   1_554  S
O1984     Zr1990   2.379   1_554  S
O1984      H2019   0.965       .  S
O1985     Zr1988   2.406   1_554  S
O1985      H2022   0.966       .  S
O1986     Zr1989   2.392   1_554  S
Zr1987     O2012   2.443       .  S
Zr1987     O2006   2.453       .  S
Zr1987     O2014   2.428       .  S
Zr1987     O1993   2.403       .  S
Zr1987     O1996   2.378       .  S
Zr1988     O2007   2.435       .  S
Zr1988     O2001   2.467       .  S
Zr1989     O1991   2.435       .  S
Zr1989     O2013   2.439   1_556  S
Zr1989     O2015   2.437       .  S
Zr1989     O1993   2.388       .  S
Zr1989     O1996   2.402       .  S
Zr1990     O2016   2.437   1_556  S
Zr1990     O2017   2.435       .  S
Zr1990     O1993   2.399       .  S
O1991      H2028   0.990       .  S
O1992      H2023   0.990   1_556  S
O1992      H2037   0.990   1_556  S
O1994      H2020   0.964       .  S
O1996      H2021   0.972       .  S
O2000      H2036   0.990       .  S
O2002      C2003   1.279       .  A
O2004     Zr2005   2.438   1_554  S
O2004      H2033   0.990   1_554  S
Zr2005     O2009   2.440       .  S
Zr2005     O2010   2.429       .  S
O2007      H2024   0.990       .  S
O2007      H2039   0.990       .  S
O2008      H2025   0.990       .  S
O2009      H2029   0.990   1_655  S
O2010      C2011   1.280       .  A
O2012      H2031   0.989       .  S
O2013      H2027   0.990       .  S
O2013      H2034   0.990       .  S
O2014      C2018   1.280       .  A
O2015      C2018   1.284       .  A
O2016      H2026   0.990       .  S
Zr2041     O2042   2.446       .  S
Zr2041     O2043   2.434       .  S
Zr2041     O2044   2.451       .  S
Zr2041     O2047   2.419       .  S
Zr2041     O2049   2.382       .  S
Zr2041     O2050   2.385       .  S
Zr2041     O2051   2.408       .  S
Zr2041     O2052   2.397       .  S
O2042      H2098   0.990       .  S
O2042      H2106   0.991       .  S
O2043      C2063   1.282       .  A
O2044      C2065   1.285       .  A
O2045     Zr2055   2.453       .  S
O2045      C2064   1.285       .  A
O2046     Zr2054   2.447       .  S
O2046      C2065   1.286       .  A
O2047      C2064   1.285       .  A
O2048     Zr2056   2.425       .  S
O2048      C2063   1.280       .  A
O2049     Zr2054   2.415       .  S
O2049     Zr2056   2.385       .  S
O2050     Zr2055   2.397       .  S
O2050     Zr2056   2.374       .  S
O2050      H2085   0.966       .  S
O2051     Zr2054   2.411       .  S
O2051     Zr2071   2.400       .  S
O2051      H2088   0.965       .  S
O2052     Zr2055   2.398       .  S
O2052     Zr2071   2.384       .  S
Zr2053     O2078   2.445       .  S
Zr2053     O2072   2.455       .  S
Zr2053     O2080   2.411       .  S
Zr2053     O2068   2.409       .  S
Zr2053     O2059   2.408       .  S
Zr2053     O2060   2.405       .  S
Zr2053     O2061   2.367       .  S
Zr2053     O2062   2.378       .  S
Zr2054     O2073   2.434       .  S
Zr2054     O2066   2.435       .  S
Zr2054     O2067   2.482       .  S
Zr2054     O2060   2.395       .  S
Zr2054     O2061   2.399       .  S
Zr2055     O2057   2.436       .  S
Zr2055     O2079   2.435       .  S
Zr2055     O2081   2.448       .  S
Zr2055     O2059   2.400       .  S
Zr2055     O2062   2.403       .  S
Zr2056     O2082   2.436       .  S
Zr2056     O2083   2.435       .  S
Zr2056     O2058   2.436       .  S
Zr2056     O2059   2.403       .  S
Zr2056     O2060   2.382       .  S
O2057      H2094   0.990       .  S
O2058      H2089   0.990       .  S
O2058      H2103   0.990       .  S
O2060      H2086   0.965       .  S
O2061     Zr2071   2.390       .  S
O2062     Zr2071   2.379       .  S
O2062      H2087   0.965       .  S
O2066      H2102   0.990       .  S
O2067      C2069   1.291       .  A
O2068      C2069   1.281       .  A
O2070     Zr2071   2.437       .  S
O2070      H2099   0.990       .  S
Zr2071     O2074   2.436       .  S
Zr2071     O2075   2.438       .  S
Zr2071     O2076   2.418       .  S
O2072      C2077   1.287       .  A
O2073      H2090   0.990       .  S
O2073      H2105   0.990       .  S
O2074      H2091   0.990       .  S
O2075      H2095   0.990       .  S
O2075      H2104   0.990       .  S
O2076      C2077   1.278       .  A
O2078      H2097   0.990       .  S
O2078      H2101   0.991       .  S
O2079      H2093   0.990       .  S
O2079      H2100   0.990       .  S
O2080      C2084   1.277       .  A
O2081      C2084   1.285       .  A
O2082      H2092   0.990       .  S
O2083      H2096   0.990       .  S
C2107      C2108   1.415       .  A
C2107      F2114   1.358       .  S
C2109      C2110   1.401       .  A
C2109      F2116   1.358       .  S
C2110      C2111   1.407       .  A
C2110      F2115   1.358       .  S
C2111      C2112   1.398       .  A
C2112      F2113   1.357       .  S
C2117      C2118   1.407       .  A
C2117      C2122   1.400       .  A
C2117      F2124   1.358       .  S
C2118      C2119   1.401       .  A
C2119      C2120   1.403       .  A
C2119      F2126   1.357       .  S
C2120      C2121   1.411       .  A
C2120      F2125   1.357       .  S
C2121      C2122   1.404       .  A
C2122      F2123   1.358       .  S
C2127      C2128   1.401       .  A
C2127      C2132   1.397       .  A
C2127      F2134   1.358       .  S
C2128      C2129   1.409       .  A
C2129      C2130   1.392       .  A
C2129      F2136   1.359       .  S
C2130      C2131   1.405       .  A
C2130      F2135   1.358       .  S
C2131      C2132   1.411       .  A
C2132      F2133   1.358       .  S
C2137      C2138   1.403       .  A
C2137      C2142   1.397       .  A
C2137      F2144   1.358       .  S
C2138      C2139   1.410       .  A
C2139      C2140   1.400       .  A
C2139      F2146   1.358       .  S
C2140      C2141   1.401       .  A
C2140      F2145   1.356       .  S
C2141      C2142   1.407       .  A
C2142      F2143   1.358       .  S
C2147      C2148   1.407       .  A
C2147      C2152   1.399       .  A
C2147      F2154   1.358       .  S
C2148      C2149   1.413       .  A
C2149      C2150   1.404       .  A
C2149      F2156   1.358       .  S
C2150      C2151   1.402       .  A
C2150      F2155   1.357       .  S
C2151      C2152   1.405       .  A
C2152      F2153   1.358       .  S
C2157      C2158   1.409       .  A
C2157      C2162   1.398       .  A
C2157      F2164   1.358       .  S
C2158      C2159   1.414       .  A
C2159      C2160   1.397       .  A
C2159      F2166   1.358       .  S
C2160      C2161   1.408       .  A
C2160      F2165   1.358       .  S
C2161      C2162   1.415       .  A
C2162      F2163   1.358       .  S
C2167      C2168   1.407       .  A
C2167      C2172   1.404       .  A
C2167      F2174   1.357       .  S
C2168      C2169   1.414       .  A
C2169      C2170   1.402       .  A
C2169      F2176   1.358       .  S
C2170      C2171   1.402       .  A
C2170      F2175   1.357       .  S
C2171      C2172   1.407       .  A
C2172      F2173   1.358       .  S
C2177      C2178   1.402       .  A
C2177      C2182   1.401       .  A
C2177      F2184   1.358       .  S
C2178      C2179   1.410       .  A
C2179      C2180   1.404       .  A
C2179      F2186   1.358       .  S
C2180      C2181   1.404       .  A
C2180      F2185   1.357       .  S
C2181      C2182   1.408       .  A
C2182      F2183   1.358       .  S
C2187      C2188   1.409       .  A
C2187      C2192   1.397       .  A
C2187      F2194   1.358       .  S
C2188      C2189   1.409       .  A
C2189      C2190   1.398       .  A
C2189      F2196   1.358   1_565  S
C2190      C2191   1.410       .  A
C2190      F2195   1.358       .  S
C2191      C2192   1.412       .  A
C2192      F2193   1.358       .  S
C2197      C2202   1.401       .  A
C2197      F2204   1.357       .  S
C2198      C2199   1.412       .  A
C2199      C2200   1.397   1_655  A
C2199      F2206   1.359       .  S
C2200      F2205   1.357       .  S
C2201      C2202   1.407       .  A
C2202      F2203   1.358       .  S
C2207      C2208   1.408       .  A
C2207      C2212   1.399       .  A
C2207      F2214   1.358       .  S
C2208      C2209   1.396       .  A
C2209      C2210   1.394       .  A
C2209      F2216   1.357       .  S
C2210      C2211   1.412       .  A
C2210      F2215   1.358       .  S
C2211      C2212   1.402       .  A
C2212      F2213   1.358       .  S
C2217      C2218   1.407       .  A
C2217      C2222   1.394       .  A
C2217      F2224   1.359       .  S
C2218      C2219   1.405       .  A
C2219      C2220   1.392       .  A
C2219      F2226   1.358       .  S
C2220      C2221   1.406       .  A
C2220      F2225   1.358       .  S
C2221      C2222   1.408       .  A
C2227      C2228   1.409       .  A
C2227      C2232   1.404       .  A
C2227      F2234   1.358       .  S
C2228      C2229   1.415       .  A
C2229      C2230   1.403       .  A
C2229      F2236   1.357       .  S
C2230      C2231   1.402       .  A
C2230      F2235   1.357       .  S
C2231      C2232   1.407       .  A
C2237      C2238   1.406       .  A
C2237      C2242   1.402       .  A
C2237      F2244   1.357       .  S
C2238      C2239   1.413       .  A
C2239      C2240   1.406       .  A
C2239      F2246   1.358       .  S
C2240      C2241   1.403       .  A
C2240      F2245   1.357       .  S
C2241      C2242   1.407       .  A
C2242      F2243   1.358       .  S
C2247      C2248   1.414       .  A
C2247      C2252   1.398       .  A
C2247      F2254   1.358       .  S
C2248      C2249   1.408       .  A
C2249      C2250   1.400       .  A
C2249      F2256   1.358       .  S
C2250      C2251   1.414       .  A
C2250      F2255   1.358       .  S
C2251      C2252   1.408       .  A
C2252      F2253   1.358       .  S
C2257      C2258   1.400       .  A
C2257      C2262   1.401       .  A
C2257      F2264   1.357       .  S
C2258      C2259   1.405       .  A
C2259      C2260   1.397       .  A
C2259      F2266   1.358       .  S
C2260      C2261   1.403       .  A
C2260      F2265   1.358       .  S
C2261      C2262   1.410       .  A
C2262      F2263   1.357       .  S
C2267      C2268   1.401       .  A
C2267      C2272   1.403       .  A
C2267      F2274   1.357       .  S
C2269      C2270   1.394       .  A
C2269      F2276   1.358       .  S
C2270      F2275   1.358       .  S
C2271      C2272   1.411       .  A
C2272      F2273   1.358       .  S
C2277      C2278   1.413       .  A
C2277      C2282   1.399       .  A
C2277      F2284   1.358       .  S
C2278      C2279   1.406       .  A
C2279      F2286   1.358       .  S
C2280      C2281   1.412       .  A
C2280      F2285   1.357       .  S
C2282      F2283   1.358       .  S
C2287      C2288   1.406       .  A
C2287      C2292   1.401       .  A
C2287      F2294   1.358       .  S
C2288      C2289   1.411       .  A
C2289      C2290   1.406       .  A
C2289      F2296   1.357       .  S
C2290      C2291   1.403       .  A
C2290      F2295   1.356       .  S
C2291      C2292   1.407       .  A
C2292      F2293   1.358       .  S
C2297      C2298   1.414       .  A
C2297      C2302   1.396       .  A
C2297      F2304   1.358       .  S
C2298      C2299   1.404       .  A
C2299      C2300   1.401       .  A
C2299      F2306   1.358       .  S
C2300      C2301   1.408       .  A
C2300      F2305   1.358       .  S
C2301      C2302   1.397       .  A
C2302      F2303   1.357       .  S
C2307      C2308   1.410       .  A
C2307      C2312   1.399       .  A
C2307      F2314   1.358       .  S
C2308      C2309   1.406       .  A
C2309      C2310   1.392       .  A
C2310      C2311   1.410       .  A
C2310      F2315   1.359       .  S
C2311      C2312   1.403       .  A
C2312      F2313   1.357       .  S
C2317      C2318   1.407       .  A
C2317      C2322   1.401       .  A
C2317      F2324   1.358       .  S
C2318      C2319   1.414       .  A
C2319      C2320   1.406       .  A
C2319      F2326   1.358   1_565  S
C2320      C2321   1.403       .  A
C2320      F2325   1.357       .  S
C2321      C2322   1.407       .  A
C2322      F2323   1.358       .  S
C2327      C2328   1.412       .  A
C2327      C2332   1.404       .  A
C2327      F2334   1.358       .  S
C2328      C2329   1.403       .  A
C2329      C2330   1.398       .  A
C2329      F2336   1.357       .  S
C2330      C2331   1.406       .  A
C2330      F2335   1.358       .  S
C2331      C2332   1.403       .  A
C2332      F2333   1.357       .  S
C2337      C2338   1.413       .  A
C2337      C2342   1.394       .  A
C2337      F2344   1.358       .  S
C2338      C2339   1.408       .  A
C2339      C2340   1.402       .  A
C2340      C2341   1.414       .  A
C2340      F2345   1.358       .  S
C2341      C2342   1.407       .  A
C2342      F2343   1.358       .  S
C2347      C2348   1.404       .  A
C2347      C2352   1.402       .  A
C2347      F2354   1.358       .  S
C2348      C2349   1.411       .  A
C2349      C2350   1.404       .  A
C2349      F2356   1.358       .  S
C2350      C2351   1.404       .  A
C2350      F2355   1.357       .  S
C2351      C2352   1.408       .  A
C2352      F2353   1.358       .  S
C2357      C2358   1.401       .  A
C2357      C2362   1.403       .  A
C2357      F2364   1.357       .  S
C2358      C2359   1.409       .  A
C2359      C2360   1.408       .  A
C2359      F2366   1.358       .  S
C2360      C2361   1.408       .  A
C2360      F2365   1.357       .  S
C2361      C2362   1.416       .  A
C2362      F2363   1.358       .  S
C2367      C2368   1.407       .  A
C2367      C2372   1.396       .  A
C2367      F2374   1.358       .  S
C2368      C2369   1.409       .  A
C2369      C2370   1.398       .  A
C2369      F2376   1.358       .  S
C2370      C2371   1.411       .  A
C2370      F2375   1.358       .  S
C2371      C2372   1.413       .  A
C2372      F2373   1.358       .  S
