geometry optimzed in LAMMPS
_audit_creation_date              2020-11-30 
_audit_creation_method            'lammps2cif' 
_symmetry_space_group_name_H-M    'P1' 
_symmetry_Int_Tables_number       1 
_symmetry_cell_setting            triclinic 
loop_ 
_symmetry_equiv_pos_as_xyz 
  x,y,z 
_cell_length_a                    27.77111554 
_cell_length_b                    27.762551079244815 
_cell_length_c                    40.69287298206998 
_cell_angle_alpha                 90.00335853677252 
_cell_angle_beta                  89.9966853443974 
_cell_angle_gamma                 119.93771583927942 
loop_ 
_atom_site_label 
_atom_site_type_symbol 
_atom_site_fract_x 
_atom_site_fract_y 
_atom_site_fract_z 
_atom_site_charge 
C1          C  0.33334949  0.66670052  0.09236546     0.50500
H2          H  0.33329212  0.66667310  0.06504953     0.01500
C3          C  0.33352922  0.66676521  0.15646488     0.50500
H4          H  0.33363768  0.66679806  0.18378111     0.01500
C5          C  0.36285047  0.63721556  0.10749825    -0.12200
C6          C  0.36285646  0.72564997  0.10752618    -0.12000
C7          C  0.27445800  0.63724835  0.10759512    -0.12400
C8          C  0.36300034  0.63730926  0.14123817    -0.12300
C9          C  0.36287166  0.72566502  0.14127780    -0.11900
C10         C  0.27455712  0.63727173  0.14137231    -0.12200
C11         C  0.15010584  0.38805268  0.35710094     0.07300
C12         C  0.14968663  0.38715873  0.39167844     0.07300
C13         C  0.19298192  0.38627336  0.40872867    -0.13200
C14         C  0.23820003  0.38939056  0.39169984     0.07300
C15         C  0.23879325  0.39063523  0.35714651     0.07300
C16         C  0.19404138  0.38844240  0.34005144    -0.13200
H17         H  0.19550145  0.39142271  0.31344060     0.09300
H18         H  0.19366197  0.38768677  0.43538461     0.09300
C19         C  0.14934257  0.76275756  0.35765168     0.07300
C20         C  0.14947413  0.76257606  0.39223561     0.07300
C21         C  0.19281416  0.80666227  0.40928740    -0.13200
C22         C  0.23744175  0.84939534  0.39221964     0.07300
C23         C  0.23715575  0.84975506  0.35763979     0.07300
C24         C  0.19236578  0.80716588  0.34060463    -0.13200
H25         H  0.19329785  0.80620713  0.31396358     0.09300
H26         H  0.19408732  0.80535220  0.43591018     0.09300
C27         C  0.76158449  0.61130942  0.10705902     0.07300
C28         C  0.76197343  0.61210422  0.14163474     0.07300
C29         C  0.80618049  0.61308197  0.15870306    -0.13200
C30         C  0.84841199  0.61015893  0.14169011     0.07300
C31         C  0.84782645  0.60897417  0.10713180     0.07300
C32         C  0.80522072  0.61107295  0.09002427    -0.13200
H33         H  0.80376367  0.60816033  0.06341100     0.09300
H34         H  0.80540355  0.61162199  0.18535732     0.09300
Zn35       Zn  0.07697297  0.53806659  0.48321435     1.49700
Zn36       Zn  0.95947103  0.42245074  0.48302003     1.49400
Zn37       Zn  0.00495651  0.50194347  0.04758757     1.49100
Zn38       Zn  0.95926124  0.53584362  0.48297673     1.49500
O39         O  0.00015421  0.49958455  0.99922440    -1.79100
O40         O  0.08988028  0.48584291  0.45528811    -0.69700
O41         O  0.93398700  0.36990403  0.02124429    -0.69500
O42         O  0.08453994  0.54193037  0.06530002    -0.69100
O43         O  0.00937578  0.40584992  0.45526304    -0.69700
O44         O  0.13547673  0.56734550  0.01986574    -0.69300
O45         O  0.96610876  0.42399376  0.06563433    -0.69900
O46         O  0.93324150  0.56236381  0.02129465    -0.69300
O47         O  0.89075705  0.40474596  0.45569848    -0.70100
O48         O  0.96547789  0.54047550  0.06568854    -0.69500
O49         O  0.89074070  0.48464969  0.45555195    -0.69900
O50         O  0.00920853  0.60268038  0.45532685    -0.69800
O51         O  0.08980435  0.60326566  0.45539530    -0.69600
C52         C  0.05988415  0.43534554  0.44657925     0.82200
C53         C  0.93967464  0.37633074  0.05220784     0.82700
C54         C  0.13169668  0.56552788  0.05109727     0.81600
C55         C  0.93881830  0.56151619  0.05227145     0.82000
C56         C  0.86911476  0.43385753  0.44710285     0.83100
C57         C  0.05979555  0.62380838  0.44671383     0.82200
Zn58       Zn  0.95960581  0.53715204  0.26614586     1.49700
Zn59       Zn  0.00512255  0.50342282  0.20140933     1.49400
Zn60       Zn  0.07711845  0.53887319  0.26587368     1.49100
Zn61       Zn  0.95957966  0.42350516  0.26582704     1.49500
O62         O  0.00032779  0.50074407  0.24977915    -1.79100
O63         O  0.93431700  0.56478148  0.22795647    -0.69700
O64         O  0.08480770  0.54281998  0.18380501    -0.69500
O65         O  0.09018889  0.60400377  0.29385172    -0.69100
O66         O  0.96652177  0.54299633  0.18350798    -0.69700
O67         O  0.00954748  0.60332935  0.29422679    -0.69300
O68         O  0.13569642  0.56788750  0.22926540    -0.69900
O69         O  0.00928883  0.40647427  0.29362051    -0.69300
O70         O  0.96535307  0.42548742  0.18311754    -0.70100
O71         O  0.08973826  0.48648974  0.29377655    -0.69500
O72         O  0.93381905  0.37122996  0.22746840    -0.69900
O73         O  0.89081394  0.40582826  0.29302862    -0.69800
O74         O  0.89066944  0.48567825  0.29322729    -0.69600
C75         C  0.94011044  0.56426566  0.19697681     0.82200
C76         C  0.13195082  0.56610384  0.19803065     0.82700
C77         C  0.06014737  0.62438116  0.30278255     0.81600
C78         C  0.05976068  0.43596509  0.30240807     0.82000
C79         C  0.93897143  0.37775611  0.19649344     0.83100
C80         C  0.86903576  0.43483377  0.30157940     0.82200
C81         C  0.84683991  0.23947120  0.14180427     0.07300
C82         C  0.84756962  0.23889005  0.10725907     0.07300
C83         C  0.80543900  0.19386535  0.09016240    -0.13200
C84         C  0.76118029  0.15066618  0.10715634     0.07300
C85         C  0.76048254  0.15114062  0.14171776     0.07300
C86         C  0.80400950  0.19492108  0.15884775    -0.13200
H87         H  0.80239251  0.19634607  0.18545070     0.09300
H88         H  0.80486014  0.19455574  0.06350830     0.09300
C89         C  0.38760436  0.15021117  0.14222371     0.07300
C90         C  0.38715609  0.14990583  0.10764471     0.07300
C91         C  0.38503363  0.19255001  0.09058122    -0.13200
C92         C  0.38635849  0.23698661  0.10760353     0.07300
C93         C  0.38651768  0.23714065  0.14218646     0.07300
C94         C  0.38563672  0.19297230  0.15926192    -0.13200
H95         H  0.38810066  0.19425465  0.18589327     0.09300
H96         H  0.38706365  0.19353985  0.06393832     0.09300
C97         C  0.61069828  0.84921407  0.35720801     0.07300
C98         C  0.60970848  0.84876530  0.39176884     0.07300
C99         C  0.60956336  0.80497073  0.40886253    -0.13200
C100        C  0.60775026  0.76036426  0.39178710     0.07300
C101        C  0.60893564  0.76094181  0.35723863     0.07300
C102        C  0.61173977  0.80599373  0.34017643    -0.13200
H103        H  0.61034179  0.80528866  0.31352071     0.09300
H104        H  0.60661268  0.80355169  0.43547277     0.09300
Zn105      Zn  0.46097284  0.92274084  0.26554641     1.49700
Zn106      Zn  0.57667690  0.04012633  0.26571527     1.49400
Zn107      Zn  0.49703779  0.99521511  0.20128928     1.49100
Zn108      Zn  0.46302121  0.04017405  0.26629433     1.49500
O109        O  0.49945000  0.99964708  0.24966750    -1.79100
O110        O  0.51298310  0.90970842  0.29343168    -0.69700
O111        O  0.62920678  0.06449599  0.22745040    -0.69500
O112        O  0.45703828  0.91569962  0.18348279    -0.69100
O113        O  0.59286885  0.99029366  0.29384596    -0.69700
O114        O  0.43213780  0.86457254  0.22884641    -0.69300
O115        O  0.57497411  0.03372127  0.18307495    -0.69900
O116        O  0.43531543  0.06552480  0.22817143    -0.69300
O117        O  0.59476627  0.10940867  0.29263018    -0.70100
O118        O  0.45809244  0.03454043  0.18354980    -0.69500
O119        O  0.51465435  0.10899820  0.29341103    -0.69900
O120        O  0.39677393  0.99013056  0.29442158    -0.69800
O121        O  0.39570376  0.90931440  0.29345354    -0.69600
C122        C  0.56332101  0.93969473  0.30236871     0.82200
C123        C  0.62271445  0.05917542  0.19647584     0.82700
C124        C  0.43380756  0.86849013  0.19763526     0.81600
C125        C  0.43626194  0.06032652  0.19715681     0.82000
C126        C  0.56564184  0.13092513  0.30146870     0.83100
C127        C  0.37549377  0.93934858  0.30267909     0.82200
Zn128      Zn  0.53854353  0.46143530  0.23323609     1.49700
Zn129      Zn  0.42321390  0.46391924  0.23305402     1.49400
Zn130      Zn  0.50280999  0.49782698  0.29760584     1.49100
Zn131      Zn  0.53668959  0.57718920  0.23297628     1.49500
O132        O  0.50030437  0.50009405  0.24924555    -1.79100
O133        O  0.48618628  0.39625407  0.20544083    -0.69700
O134        O  0.37079557  0.43741575  0.27137337    -0.69500
O135        O  0.54247791  0.45783852  0.31532689    -0.69100
O136        O  0.40632020  0.39712304  0.20536006    -0.69700
O137        O  0.56784892  0.43220256  0.26989629    -0.69300
O138        O  0.42490624  0.45941802  0.31575803    -0.69900
O139        O  0.56395407  0.62984153  0.27115928    -0.69300
O140        O  0.40579422  0.51513229  0.20568624    -0.70100
O141        O  0.54194068  0.57580022  0.31557865    -0.69500
O142        O  0.48562344  0.59495507  0.20572124    -0.69900
O143        O  0.60300056  0.59354691  0.20512514    -0.69800
O144        O  0.60355605  0.51349036  0.20525772    -0.69600
C145        C  0.43570695  0.37587285  0.19673975     0.82200
C146        C  0.37724130  0.43833239  0.30234730     0.82700
C147        C  0.56600805  0.43415746  0.30112712     0.81600
C148        C  0.56324567  0.62345056  0.30212644     0.82000
C149        C  0.43489450  0.56588916  0.19719088     0.83100
C150        C  0.62399613  0.56395892  0.19647969     0.82200
Zn151      Zn  0.42287847  0.95963726  0.01618476     1.49700
Zn152      Zn  0.50175696  0.00450476  0.45124152     1.49400
Zn153      Zn  0.53815712  0.07702369  0.01546819     1.49100
Zn154      Zn  0.53648868  0.95956251  0.01577951     1.49500
O155        O  0.49976914  0.00009961  0.99962123    -1.79100
O156        O  0.36986571  0.93427425  0.47806327    -0.69700
O157        O  0.54121112  0.08402057  0.43340507    -0.69500
O158        O  0.48637592  0.09047368  0.04343818    -0.69100
O159        O  0.42355860  0.96511056  0.43344190    -0.69700
O160        O  0.40670536  0.00973460  0.04430461    -0.69300
O161        O  0.56738297  0.13516610  0.47876162    -0.69900
O162        O  0.60248575  0.00938733  0.04388106    -0.69300
O163        O  0.54133235  0.96602884  0.43313488    -0.70100
O164        O  0.60324132  0.09007741  0.04328532    -0.69500
O165        O  0.56469370  0.93516027  0.47754341    -0.69900
O166        O  0.48533628  0.89031974  0.04272779    -0.69800
O167        O  0.40568327  0.89082704  0.04333363    -0.69600
C168        C  0.37598900  0.93936864  0.44704601     0.82200
C169        C  0.56516745  0.13123826  0.44755166     0.82700
C170        C  0.43617547  0.06046829  0.05263420     0.81600
C171        C  0.62357446  0.06005420  0.05229156     0.82000
C172        C  0.56362206  0.94055368  0.44656904     0.83100
C173        C  0.43470851  0.86886096  0.05149020     0.82200
Zn174      Zn  0.53805582  0.46074674  0.01581544     1.49700
Zn175      Zn  0.53578889  0.57618949  0.01581994     1.49400
Zn176      Zn  0.50157916  0.49632856  0.45135868     1.49100
Zn177      Zn  0.42236979  0.46264771  0.01605215     1.49500
O178        O  0.49942141  0.49898329  0.49972447    -1.79100
O179        O  0.60294396  0.51300628  0.04373079    -0.69700
O180        O  0.56242359  0.62851317  0.47747460    -0.69500
O181        O  0.54193343  0.45692203  0.43376575    -0.69100
O182        O  0.60242199  0.59306388  0.04363906    -0.69700
O183        O  0.56771726  0.43177681  0.47922953    -0.69300
O184        O  0.53979423  0.57426592  0.43311339    -0.69900
O185        O  0.36956230  0.43508517  0.47786008    -0.69300
O186        O  0.48465809  0.59389627  0.04302647    -0.70100
O187        O  0.42350177  0.45684964  0.43341226    -0.69500
O188        O  0.40480528  0.51408116  0.04317051    -0.69900
O189        O  0.40617956  0.39645315  0.04409416    -0.69800
O190        O  0.48607176  0.39562815  0.04375991    -0.69600
C191        C  0.62342525  0.56351946  0.05239127     0.82200
C192        C  0.56115760  0.62199552  0.44649917     0.82700
C193        C  0.56582014  0.43362411  0.44799785     0.81600
C194        C  0.37586797  0.43559802  0.44688279     0.82000
C195        C  0.43392679  0.56490158  0.05156421     0.83100
C196        C  0.43569852  0.37533363  0.05266767     0.82200
C197        C  0.66699388  0.33300862  0.40643726     0.50500
H198        H  0.66707732  0.33296560  0.43375330     0.01500
C199        C  0.66682965  0.33309784  0.34233665     0.50500
H200        H  0.66677433  0.33313453  0.31502070     0.01500
C201        C  0.63741104  0.27411225  0.39123822    -0.12200
C202        C  0.63754796  0.36260980  0.39136169    -0.12000
C203        C  0.72585325  0.36236861  0.39119926    -0.12400
C204        C  0.63738663  0.27414658  0.35748726    -0.12300
C205        C  0.63744111  0.36264226  0.35758695    -0.11900
C206        C  0.72576269  0.36246870  0.35745979    -0.12200
C207        C  0.59127111  0.40869196  0.42822186    -0.08200
C208        C  0.61234528  0.38782497  0.41148079    -0.09800
C209        C  0.59052937  0.18150267  0.42775155    -0.08200
C210        C  0.61186970  0.22358054  0.41118767    -0.09800
C211        C  0.59117298  0.40896475  0.32092872    -0.08200
C212        C  0.61216762  0.38795450  0.33761413    -0.09800
C213        C  0.59102661  0.18141176  0.32107394    -0.08200
C214        C  0.61213547  0.22361739  0.33752891    -0.09800
C215        C  0.59932413  0.71274963  0.33878445    -0.08200
C216        C  0.58539906  0.67172727  0.32252192    -0.09800
C217        C  0.60176819  0.88824858  0.33873211    -0.08200
C218        C  0.58723938  0.91489357  0.32248044    -0.09800
C219        C  0.59712047  0.71160078  0.41003148    -0.08200
C220        C  0.58291874  0.67027796  0.42608082    -0.09800
C221        C  0.60048343  0.88782802  0.41002304    -0.08200
C222        C  0.58639505  0.91494993  0.42617241    -0.09800
C223        C  0.41165728  0.32663564  0.07282966    -0.08200
C224        C  0.39650239  0.28539852  0.08913697    -0.09800
C225        C  0.41145586  0.32694279  0.17675342    -0.08200
C226        C  0.39644236  0.28559501  0.16056018    -0.09800
C227        C  0.39847675  0.11237165  0.16062496    -0.08200
C228        C  0.41342665  0.08604394  0.17687766    -0.09800
C229        C  0.41234521  0.08534468  0.07286029    -0.08200
C230        C  0.39742313  0.11164566  0.08919412    -0.09800
C231        C  0.71220254  0.11205404  0.15992681    -0.08200
C232        C  0.67102428  0.08486150  0.17605307    -0.09800
C233        C  0.67228627  0.08488977  0.07237005    -0.08200
C234        C  0.71338454  0.11159360  0.08862924    -0.09800
C235        C  0.88500083  0.28816802  0.16006197    -0.08200
C236        C  0.91227340  0.32948272  0.17607720    -0.09800
C237        C  0.81853157  0.40938582  0.32113406    -0.08200
C238        C  0.77626692  0.38797603  0.33751079    -0.09800
C239        C  0.91343305  0.32807915  0.07261696    -0.08200
C240        C  0.88621970  0.28705125  0.08883868    -0.09800
C241        C  0.81873079  0.40862301  0.42743505    -0.08200
C242        C  0.77646354  0.38754071  0.41105769    -0.09800
C243        C  0.88692867  0.60044704  0.16021264    -0.08200
C244        C  0.91398937  0.58651740  0.17656353    -0.09800
C245        C  0.91247366  0.58349130  0.07269643    -0.08200
C246        C  0.88568889  0.59797720  0.08886634    -0.09800
C247        C  0.67271426  0.58801154  0.17637759    -0.08200
C248        C  0.71388758  0.60284485  0.16009081    -0.14200
C249        C  0.71339658  0.60209146  0.08869474    -0.08200
C250        C  0.67219980  0.58757387  0.07246816    -0.09800
C251        C  0.28555787  0.88804930  0.33915376    -0.08200
C252        C  0.32675638  0.91443222  0.32285024    -0.09800
C253        C  0.11099830  0.71438179  0.33920130    -0.08200
C254        C  0.08483055  0.67311936  0.32292939    -0.09800
C255        C  0.32746240  0.91357682  0.42677588    -0.08200
C256        C  0.28617135  0.88720463  0.41057604    -0.09800
C257        C  0.11094902  0.71416652  0.41061678    -0.08200
C258        C  0.08454228  0.67279875  0.42677208    -0.09800
C259        C  0.28767623  0.40178543  0.33888893    -0.08200
C260        C  0.32896864  0.41635217  0.32276281    -0.09800
C261        C  0.28648524  0.39926754  0.41019453    -0.08200
C262        C  0.32752421  0.41331422  0.42648828    -0.09800
C263        C  0.08444559  0.41183917  0.32250507    -0.08200
C264        C  0.11110035  0.39727559  0.33875260    -0.09800
C265        C  0.08448631  0.41116948  0.42648528    -0.08200
C266        C  0.11080737  0.39631810  0.41016539    -0.09800
C267        C  0.22394965  0.61189189  0.08759929    -0.08200
C268        C  0.18200477  0.59080570  0.07089872    -0.09800
C269        C  0.22417123  0.61202464  0.16148585    -0.08200
C270        C  0.18228115  0.59110542  0.17824052    -0.09800
C271        C  0.40882231  0.59032429  0.07115464    -0.08200
C272        C  0.38790993  0.61170331  0.08755360    -0.09800
C273        C  0.40970042  0.59111325  0.17752079    -0.08200
C274        C  0.38846873  0.61215248  0.16111539    -0.09800
C275        C  0.40955507  0.81839225  0.07111551    -0.08200
C276        C  0.38831930  0.77619095  0.08757559    -0.09800
C277        C  0.38799357  0.77617628  0.16124545    -0.08200
C278        C  0.40883918  0.81822838  0.17783344    -0.09800
C279        C  0.33334962  0.66670058  0.59236551     0.50500
H280        H  0.33329237  0.66667329  0.56504958     0.01500
C281        C  0.33352928  0.66676518  0.65646493     0.50500
H282        H  0.33363769  0.66679799  0.68378114     0.01500
C283        C  0.36285060  0.63721563  0.60749829    -0.12200
C284        C  0.36285655  0.72565001  0.60752625    -0.12000
C285        C  0.27445811  0.63724838  0.60759515    -0.12400
C286        C  0.36300041  0.63730925  0.64123820    -0.12300
C287        C  0.36287173  0.72566501  0.64127787    -0.11900
C288        C  0.27455719  0.63727171  0.64137235    -0.12200
C289        C  0.15010583  0.38805266  0.85710097     0.07300
C290        C  0.14968665  0.38715870  0.89167841     0.07300
C291        C  0.19298196  0.38627333  0.90872875    -0.13200
C292        C  0.23820004  0.38939051  0.89169979     0.07300
C293        C  0.23879319  0.39063514  0.85714651     0.07300
C294        C  0.19404131  0.38844231  0.84005134    -0.13200
H295        H  0.19550128  0.39142251  0.81344101     0.09300
H296        H  0.19366208  0.38768680  0.93538419     0.09300
C297        C  0.14934265  0.76275759  0.85765167     0.07300
C298        C  0.14947416  0.76257602  0.89223560     0.07300
C299        C  0.19281414  0.80666222  0.90928749    -0.13200
C300        C  0.23744175  0.84939534  0.89221970     0.07300
C301        C  0.23715579  0.84975513  0.85763985     0.07300
C302        C  0.19236588  0.80716596  0.84060472    -0.13200
H303        H  0.19329809  0.80620725  0.81396340     0.09300
H304        H  0.19408721  0.80535214  0.93590999     0.09300
C305        C  0.76158453  0.61130934  0.60705898     0.07300
C306        C  0.76197343  0.61210415  0.64163471     0.07300
C307        C  0.80618050  0.61308193  0.65870296    -0.13200
C308        C  0.84841207  0.61015897  0.64169012     0.07300
C309        C  0.84782655  0.60897420  0.60713178     0.07300
C310        C  0.80522080  0.61107294  0.59002426    -0.13200
H311        H  0.80376380  0.60816034  0.56341088     0.09300
H312        H  0.80540352  0.61162189  0.68535765     0.09300
Zn313      Zn  0.07697291  0.53806658  0.98321428     1.49700
Zn314      Zn  0.95947104  0.42245075  0.98301996     1.49400
Zn315      Zn  0.00495661  0.50194348  0.54758764     1.49100
Zn316      Zn  0.95926118  0.53584365  0.98297669     1.49500
O317        O  0.00015428  0.49958455  0.49922447    -1.79100
O318        O  0.08988027  0.48584296  0.95528804    -0.69700
O319        O  0.93398702  0.36990405  0.52124437    -0.69500
O320        O  0.08454003  0.54193037  0.56530008    -0.69100
O321        O  0.00937581  0.40584996  0.95526298    -0.69700
O322        O  0.13547680  0.56734551  0.51986580    -0.69300
O323        O  0.96610883  0.42399376  0.56563442    -0.69900
O324        O  0.93324157  0.56236376  0.52129471    -0.69300
O325        O  0.89075712  0.40474602  0.95569838    -0.70100
O326        O  0.96547800  0.54047552  0.56568860    -0.69500
O327        O  0.89074067  0.48464969  0.95555191    -0.69900
O328        O  0.00920851  0.60268040  0.95532680    -0.69800
O329        O  0.08980428  0.60326560  0.95539520    -0.69600
C330        C  0.05988417  0.43534558  0.94657920     0.82200
C331        C  0.93967467  0.37633075  0.55220792     0.82700
C332        C  0.13169677  0.56552788  0.55109733     0.81600
C333        C  0.93881840  0.56151619  0.55227150     0.82000
C334        C  0.86911479  0.43385756  0.94710277     0.83100
C335        C  0.05979551  0.62380835  0.94671376     0.82200
Zn336      Zn  0.95960574  0.53715203  0.76614586     1.49700
Zn337      Zn  0.00512257  0.50342281  0.70140933     1.49400
Zn338      Zn  0.07711844  0.53887322  0.76587365     1.49100
Zn339      Zn  0.95957964  0.42350518  0.76582708     1.49500
O340        O  0.00032776  0.50074407  0.74977915    -1.79100
O341        O  0.93431700  0.56478148  0.72795646    -0.69700
O342        O  0.08480774  0.54281992  0.68380500    -0.69500
O343        O  0.09018881  0.60400377  0.79385168    -0.69100
O344        O  0.96652182  0.54299634  0.68350798    -0.69700
O345        O  0.00954737  0.60332930  0.79422681    -0.69300
O346        O  0.13569643  0.56788757  0.72926538    -0.69900
O347        O  0.00928884  0.40647437  0.79362057    -0.69300
O348        O  0.96535310  0.42548742  0.68311756    -0.70100
O349        O  0.08973832  0.48648981  0.79377650    -0.69500
O350        O  0.93381905  0.37122997  0.72746844    -0.69900
O351        O  0.89081394  0.40582829  0.79302865    -0.69800
O352        O  0.89066931  0.48567821  0.79322722    -0.69600
C353        C  0.94011050  0.56426570  0.69697681     0.82200
C354        C  0.13195085  0.56610384  0.69803064     0.82700
C355        C  0.06014729  0.62438114  0.80278254     0.81600
C356        C  0.05976072  0.43596518  0.80240807     0.82000
C357        C  0.93897145  0.37775612  0.69649347     0.83100
C358        C  0.86903569  0.43483376  0.80157938     0.82200
C359        C  0.84683991  0.23947116  0.64180429     0.07300
C360        C  0.84756966  0.23889004  0.60725911     0.07300
C361        C  0.80543907  0.19386533  0.59016233    -0.13200
C362        C  0.76118032  0.15066618  0.60715635     0.07300
C363        C  0.76048254  0.15114061  0.64171775     0.07300
C364        C  0.80400948  0.19492106  0.65884777    -0.13200
H365        H  0.80239249  0.19634605  0.68545064     0.09300
H366        H  0.80486025  0.19455571  0.56350865     0.09300
C367        C  0.38760429  0.15021115  0.64222367     0.07300
C368        C  0.38715612  0.14990588  0.60764469     0.07300
C369        C  0.38503368  0.19255008  0.59058113    -0.13200
C370        C  0.38635848  0.23698664  0.60760353     0.07300
C371        C  0.38651766  0.23714065  0.64218644     0.07300
C372        C  0.38563663  0.19297225  0.65926192    -0.13200
H373        H  0.38810054  0.19425456  0.68589319     0.09300
H374        H  0.38706373  0.19353996  0.56393859     0.09300
C375        C  0.61069832  0.84921407  0.85720795     0.07300
C376        C  0.60970852  0.84876531  0.89176878     0.07300
C377        C  0.60956349  0.80497079  0.90886240    -0.13200
C378        C  0.60775039  0.76036432  0.89178706     0.07300
C379        C  0.60893576  0.76094183  0.85723859     0.07300
C380        C  0.61173985  0.80599373  0.84017632    -0.13200
H381        H  0.61034191  0.80528864  0.81352085     0.09300
H382        H  0.60661281  0.80355180  0.93547301     0.09300
Zn383      Zn  0.46097276  0.92274085  0.76554647     1.49700
Zn384      Zn  0.57667690  0.04012632  0.76571528     1.49400
Zn385      Zn  0.49703780  0.99521507  0.70128929     1.49100
Zn386      Zn  0.46302120  0.04017407  0.76629429     1.49500
O387        O  0.49944998  0.99964707  0.74966751    -1.79100
O388        O  0.51298305  0.90970843  0.79343173    -0.69700
O389        O  0.62920679  0.06449600  0.72745041    -0.69500
O390        O  0.45703828  0.91569955  0.68348286    -0.69100
O391        O  0.59286885  0.99029362  0.79384595    -0.69700
O392        O  0.43213774  0.86457250  0.72884649    -0.69300
O393        O  0.57497409  0.03372119  0.68307498    -0.69900
O394        O  0.43531545  0.06552477  0.72817136    -0.69300
O395        O  0.59476631  0.10940863  0.79263020    -0.70100
O396        O  0.45809250  0.03454042  0.68354974    -0.69500
O397        O  0.51465444  0.10899826  0.79341094    -0.69900
O398        O  0.39677395  0.99013064  0.79442157    -0.69800
O399        O  0.39570371  0.90931443  0.79345360    -0.69600
C400        C  0.56332098  0.93969470  0.80236871     0.82200
C401        C  0.62271444  0.05917540  0.69647586     0.82700
C402        C  0.43380755  0.86849007  0.69763535     0.81600
C403        C  0.43626199  0.06032650  0.69715674     0.82000
C404        C  0.56564190  0.13092515  0.80146866     0.83100
C405        C  0.37549377  0.93934867  0.80267913     0.82200
Zn406      Zn  0.53854355  0.46143532  0.73323610     1.49700
Zn407      Zn  0.42321390  0.46391920  0.73305406     1.49400
Zn408      Zn  0.50280998  0.49782693  0.79760588     1.49100
Zn409      Zn  0.53668960  0.57718916  0.73297632     1.49500
O410        O  0.50030436  0.50009401  0.74924558    -1.79100
O411        O  0.48618631  0.39625412  0.70544083    -0.69700
O412        O  0.37079558  0.43741571  0.77137340    -0.69500
O413        O  0.54247788  0.45783843  0.81532688    -0.69100
O414        O  0.40632018  0.39712303  0.70536011    -0.69700
O415        O  0.56784897  0.43220257  0.76989627    -0.69300
O416        O  0.42490622  0.45941797  0.81575808    -0.69900
O417        O  0.56395406  0.62984146  0.77115933    -0.69300
O418        O  0.40579421  0.51513226  0.70568629    -0.70100
O419        O  0.54194071  0.57580019  0.81557871    -0.69500
O420        O  0.48562344  0.59495503  0.70572129    -0.69900
O421        O  0.60300058  0.59354695  0.70512516    -0.69800
O422        O  0.60355603  0.51349036  0.70525771    -0.69600
C423        C  0.43570696  0.37587287  0.69673976     0.82200
C424        C  0.37724129  0.43833234  0.80234733     0.82700
C425        C  0.56600806  0.43415742  0.80112710     0.81600
C426        C  0.56324568  0.62345051  0.80212649     0.82000
C427        C  0.43489449  0.56588912  0.69719094     0.83100
C428        C  0.62399613  0.56395893  0.69647968     0.82200
Zn429      Zn  0.42287845  0.95963722  0.51618474     1.49700
Zn430      Zn  0.50175698  0.00450474  0.95124154     1.49400
Zn431      Zn  0.53815713  0.07702368  0.51546819     1.49100
Zn432      Zn  0.53648870  0.95956254  0.51577951     1.49500
O433        O  0.49976911  0.00009960  0.49962122    -1.79100
O434        O  0.36986574  0.93427434  0.97806330    -0.69700
O435        O  0.54121120  0.08402055  0.93340507    -0.69500
O436        O  0.48637593  0.09047367  0.54343817    -0.69100
O437        O  0.42355860  0.96511054  0.93344190    -0.69700
O438        O  0.40670536  0.00973461  0.54430459    -0.69300
O439        O  0.56738295  0.13516610  0.97876161    -0.69900
O440        O  0.60248589  0.00938740  0.54388098    -0.69300
O441        O  0.54133232  0.96602880  0.93313489    -0.70100
O442        O  0.60324132  0.09007742  0.54328534    -0.69500
O443        O  0.56469374  0.93516027  0.97754341    -0.69900
O444        O  0.48533640  0.89031983  0.54272786    -0.69800
O445        O  0.40568335  0.89082706  0.54333366    -0.69600
C446        C  0.37598902  0.93936867  0.94704603     0.82200
C447        C  0.56516748  0.13123825  0.94755165     0.82700
C448        C  0.43617548  0.06046829  0.55263419     0.81600
C449        C  0.62357454  0.06005425  0.55229153     0.82000
C450        C  0.56362204  0.94055364  0.94656904     0.83100
C451        C  0.43470863  0.86886103  0.55149027     0.82200
Zn452      Zn  0.53805580  0.46074674  0.51581540     1.49700
Zn453      Zn  0.53578898  0.57618951  0.51581994     1.49400
Zn454      Zn  0.50157921  0.49632857  0.95135868     1.49100
Zn455      Zn  0.42236985  0.46264779  0.51605218     1.49500
O456        O  0.49942140  0.49898327  0.99972448    -1.79100
O457        O  0.60294397  0.51300625  0.54373075    -0.69700
O458        O  0.56242345  0.62851316  0.97747459    -0.69500
O459        O  0.54193349  0.45692203  0.93376578    -0.69100
O460        O  0.60242210  0.59306390  0.54363904    -0.69700
O461        O  0.56771729  0.43177680  0.97922959    -0.69300
O462        O  0.53979429  0.57426591  0.93311338    -0.69900
O463        O  0.36956231  0.43508512  0.97786003    -0.69300
O464        O  0.48465826  0.59389639  0.54302646    -0.70100
O465        O  0.42350185  0.45684967  0.93341223    -0.69500
O466        O  0.40480545  0.51408129  0.54317055    -0.69900
O467        O  0.40617959  0.39645323  0.54409418    -0.69800
O468        O  0.48607170  0.39562810  0.54375984    -0.69600
C469        C  0.62342533  0.56351944  0.55239122     0.82200
C470        C  0.56115756  0.62199551  0.94649916     0.82700
C471        C  0.56582017  0.43362409  0.94799790     0.81600
C472        C  0.37586803  0.43559803  0.94688273     0.82000
C473        C  0.43392697  0.56490172  0.55156422     0.83100
C474        C  0.43569850  0.37533363  0.55266764     0.82200
C475        C  0.66699388  0.33300858  0.90643726     0.50500
H476        H  0.66707736  0.33296555  0.93375330     0.01500
C477        C  0.66682961  0.33309781  0.84233664     0.50500
H478        H  0.66677430  0.33313454  0.81502070     0.01500
C479        C  0.63741106  0.27411222  0.89123821    -0.12200
C480        C  0.63754795  0.36260978  0.89136169    -0.12000
C481        C  0.72585323  0.36236856  0.89119925    -0.12400
C482        C  0.63738662  0.27414656  0.85748725    -0.12300
C483        C  0.63744109  0.36264223  0.85758696    -0.11900
C484        C  0.72576265  0.36246864  0.85745977    -0.12200
C485        C  0.59127113  0.40869193  0.92822191    -0.08200
C486        C  0.61234531  0.38782498  0.91148081    -0.09800
C487        C  0.59052939  0.18150264  0.92775153    -0.08200
C488        C  0.61186972  0.22358051  0.91118764    -0.09800
C489        C  0.59117300  0.40896472  0.82092869    -0.08200
C490        C  0.61216762  0.38795449  0.83761413    -0.09800
C491        C  0.59102667  0.18141178  0.82107391    -0.08200
C492        C  0.61213551  0.22361739  0.83752889    -0.09800
C493        C  0.59932422  0.71274961  0.83878446    -0.08200
C494        C  0.58539910  0.67172723  0.82252195    -0.09800
C495        C  0.60176818  0.88824857  0.83873206    -0.08200
C496        C  0.58723934  0.91489352  0.82248041    -0.09800
C497        C  0.59712055  0.71160083  0.91003147    -0.08200
C498        C  0.58291873  0.67027797  0.92608081    -0.09800
C499        C  0.60048343  0.88782800  0.91002300    -0.08200
C500        C  0.58639502  0.91494987  0.92617239    -0.09800
C501        C  0.41165727  0.32663566  0.57282965    -0.08200
C502        C  0.39650242  0.28539856  0.58913696    -0.09800
C503        C  0.41145586  0.32694280  0.67675343    -0.08200
C504        C  0.39644235  0.28559500  0.66056019    -0.09800
C505        C  0.39847674  0.11237166  0.66062493    -0.08200
C506        C  0.41342668  0.08604392  0.67687759    -0.09800
C507        C  0.41234523  0.08534470  0.57286027    -0.08200
C508        C  0.39742316  0.11164572  0.58919407    -0.09800
C509        C  0.71220255  0.11205406  0.65992683    -0.08200
C510        C  0.67102426  0.08486150  0.67605308    -0.09800
C511        C  0.67228635  0.08488981  0.57237002    -0.08200
C512        C  0.71338460  0.11159361  0.58862923    -0.09800
C513        C  0.88500081  0.28816795  0.66006202    -0.08200
C514        C  0.91227341  0.32948269  0.67607723    -0.09800
C515        C  0.81853151  0.40938580  0.82113403    -0.08200
C516        C  0.77626687  0.38797600  0.83751076    -0.09800
C517        C  0.91343307  0.32807917  0.57261704    -0.08200
C518        C  0.88621973  0.28705126  0.58883874    -0.09800
C519        C  0.81873082  0.40862301  0.92743498    -0.08200
C520        C  0.77646353  0.38754067  0.91105766    -0.09800
C521        C  0.88692873  0.60044708  0.66021265    -0.08200
C522        C  0.91398947  0.58651747  0.67656352    -0.09800
C523        C  0.91247379  0.58349132  0.57269647    -0.08200
C524        C  0.88568901  0.59797721  0.58886637    -0.09800
C525        C  0.67271426  0.58801154  0.67637756    -0.08200
C526        C  0.71388757  0.60284481  0.66009076    -0.14200
C527        C  0.71339662  0.60209139  0.58869471    -0.08200
C528        C  0.67219989  0.58757381  0.57246810    -0.09800
C529        C  0.28555789  0.88804943  0.83915383    -0.08200
C530        C  0.32675641  0.91443238  0.82285031    -0.09800
C531        C  0.11099839  0.71438184  0.83920125    -0.08200
C532        C  0.08483054  0.67311939  0.82292936    -0.09800
C533        C  0.32746241  0.91357682  0.92677593    -0.08200
C534        C  0.28617134  0.88720462  0.91057611    -0.09800
C535        C  0.11094899  0.71416645  0.91061671    -0.08200
C536        C  0.08454224  0.67279869  0.92677201    -0.09800
C537        C  0.28767613  0.40178531  0.83888888    -0.08200
C538        C  0.32896860  0.41635209  0.82276282    -0.09800
C539        C  0.28648528  0.39926755  0.91019449    -0.08200
C540        C  0.32752429  0.41331425  0.92648820    -0.09800
C541        C  0.08444563  0.41183926  0.82250509    -0.08200
C542        C  0.11110038  0.39727563  0.83875261    -0.09800
C543        C  0.08448636  0.41116952  0.92648525    -0.08200
C544        C  0.11080743  0.39631811  0.91016539    -0.09800
C545        C  0.22394978  0.61189193  0.58759930    -0.08200
C546        C  0.18200488  0.59080573  0.57089876    -0.09800
C547        C  0.22417127  0.61202460  0.66148586    -0.08200
C548        C  0.18228119  0.59110541  0.67824051    -0.09800
C549        C  0.40882251  0.59032445  0.57115466    -0.08200
C550        C  0.38791010  0.61170342  0.58755364    -0.09800
C551        C  0.40970044  0.59111321  0.67752083    -0.08200
C552        C  0.38846879  0.61215245  0.66111541    -0.09800
C553        C  0.40955522  0.81839235  0.57111560    -0.08200
C554        C  0.38831943  0.77619102  0.58757567    -0.09800
C555        C  0.38799360  0.77617624  0.66124553    -0.08200
C556        C  0.40883919  0.81822832  0.67783353    -0.09800
loop_ 
_geom_bond_atom_site_label_1 
_geom_bond_atom_site_label_2 
_geom_bond_distance 
_geom_bond_site_symmetry_2 
_ccdc_geom_bond_type 
C1            H2   1.112       .  S
C1            C7   1.547       .  S
C1            C6   1.547       .  S
C1            C5   1.546       .  S
C3            H4   1.112       .  S
C3            C9   1.546       .  S
C3            C8   1.546       .  S
C3           C10   1.546       .  S
C5            C8   1.373       .  D
C5          C272   1.462       .  S
C6            C9   1.373       .  D
C6          C276   1.462       .  S
C7           C10   1.374       .  D
C7          C267   1.463       .  S
C8          C274   1.461       .  S
C9          C277   1.462       .  S
C10         C269   1.463       .  S
C11          C12   1.407       .  A
C11          C16   1.399       .  A
C11         C264   1.440       .  S
C12          C13   1.399       .  A
C12         C266   1.439       .  S
C13          C14   1.399       .  A
C13          H18   1.085       .  S
C14          C15   1.406       .  A
C14         C261   1.440       .  S
C15          C16   1.399       .  A
C15         C259   1.439       .  S
C16          H17   1.085       .  S
C19          C20   1.407       .  A
C19          C24   1.399       .  A
C19         C253   1.440       .  S
C20          C21   1.399       .  A
C20         C257   1.441       .  S
C21          C22   1.399       .  A
C21          H26   1.085       .  S
C22          C23   1.407       .  A
C22         C256   1.440       .  S
C23          C24   1.399       .  A
C23         C251   1.441       .  S
C24          H25   1.085       .  S
C27          C28   1.407       .  A
C27          C32   1.399       .  A
C27         C249   1.440       .  S
C28          C29   1.399       .  A
C28         C248   1.439       .  S
C29          C30   1.399       .  A
C29          H34   1.085       .  S
C30          C31   1.407       .  A
C30         C243   1.440       .  S
C31          C32   1.399       .  A
C31         C246   1.439       .  S
C32          H33   1.085       .  S
Zn35         O40   2.010       .  S
Zn35         O51   2.010       .  S
Zn35        O322   2.051       .  S
Zn35        O317   1.960       .  S
Zn36         O43   2.012   1_655  S
Zn36         O47   2.045       .  S
Zn36        O319   2.005       .  S
Zn36        O317   1.970   1_655  S
Zn37         O42   2.046       .  S
Zn37         O45   2.014   1_455  S
Zn37         O48   2.015   1_455  S
Zn37         O39   1.971   1_554  S
Zn38         O49   2.046       .  S
Zn38         O50   2.016   1_655  S
Zn38        O324   2.007       .  S
Zn38        O317   1.970   1_655  S
O39        Zn313   1.960       .  S
O39        Zn314   1.970   1_455  S
O39        Zn316   1.970   1_455  S
O40          C52   1.273       .  A
O41        Zn314   2.005   1_554  S
O41          C53   1.271       .  A
O42          C54   1.274       .  A
O43          C52   1.271       .  A
O44        Zn313   2.051   1_554  S
O44          C54   1.274       .  A
O45          C53   1.272       .  A
O46        Zn316   2.007   1_554  S
O46          C55   1.272       .  A
O47          C56   1.273       .  A
O48          C55   1.272       .  A
O49          C56   1.274       .  A
O50          C57   1.272       .  A
O51          C57   1.272       .  A
C52         C265   1.430       .  S
C53         C239   1.429       .  S
C54         C268   1.454       .  S
C55         C245   1.430       .  S
C56         C241   1.453       .  S
C57         C258   1.431       .  S
Zn58         O63   2.009       .  S
Zn58         O67   2.015   1_655  S
Zn58         O74   2.047       .  S
Zn58         O62   1.971   1_655  S
Zn59         O64   2.047       .  S
Zn59         O66   2.016   1_455  S
Zn59         O70   2.017   1_455  S
Zn59         O62   1.972       .  S
Zn60         O65   2.011       .  S
Zn60         O68   2.051       .  S
Zn60         O71   2.009       .  S
Zn60         O62   1.961       .  S
Zn61         O69   2.015   1_655  S
Zn61         O72   2.005       .  S
Zn61         O73   2.044       .  S
Zn61         O62   1.971   1_655  S
O63          C75   1.272       .  A
O64          C76   1.274       .  A
O65          C77   1.272       .  A
O66          C75   1.273       .  A
O67          C77   1.272       .  A
O68          C76   1.274       .  A
O69          C78   1.272       .  A
O70          C79   1.273       .  A
O71          C78   1.272       .  A
O72          C79   1.271       .  A
O73          C80   1.273       .  A
O74          C80   1.274       .  A
C75         C244   1.430       .  S
C76         C270   1.454       .  S
C77         C254   1.431       .  S
C78         C263   1.430       .  S
C79         C236   1.430       .  S
C80         C237   1.453       .  S
C81          C82   1.406       .  A
C81          C86   1.399       .  A
C81         C235   1.440       .  S
C82          C83   1.398       .  A
C82         C240   1.439       .  S
C83          C84   1.399       .  A
C83          H88   1.085       .  S
C84          C85   1.407       .  A
C84         C234   1.439       .  S
C85          C86   1.399       .  A
C85         C231   1.439       .  S
C86          H87   1.085       .  S
C89          C90   1.407       .  A
C89          C94   1.399       .  A
C89         C227   1.440       .  S
C90          C91   1.399       .  A
C90         C230   1.441       .  S
C91          C92   1.399       .  A
C91          H96   1.085       .  S
C92          C93   1.407       .  A
C92         C224   1.440       .  S
C93          C94   1.399       .  A
C93         C226   1.440       .  S
C94          H95   1.085       .  S
C97          C98   1.407       .  A
C97         C102   1.398       .  A
C97         C217   1.439       .  S
C98          C99   1.399       .  A
C98         C221   1.439       .  S
C99         C100   1.399       .  A
C99         H104   1.085       .  S
C100        C101   1.406       .  A
C100        C219   1.440       .  S
C101        C102   1.398       .  A
C101        C215   1.438       .  S
C102        H103   1.085       .  S
Zn105       O110   2.007       .  S
Zn105       O114   2.047       .  S
Zn105       O121   2.010       .  S
Zn105       O109   1.960       .  S
Zn106       O111   2.006       .  S
Zn106       O113   2.012   1_545  S
Zn106       O117   2.046       .  S
Zn106       O109   1.971   1_545  S
Zn107       O112   2.046       .  S
Zn107       O115   2.017   1_565  S
Zn107       O118   2.015   1_565  S
Zn107       O109   1.972       .  S
Zn108       O116   2.009       .  S
Zn108       O119   2.047       .  S
Zn108       O120   2.018   1_545  S
Zn108       O109   1.971   1_545  S
O110        C122   1.272       .  A
O111        C123   1.271       .  A
O112        C124   1.273       .  A
O113        C122   1.271       .  A
O114        C124   1.274       .  A
O115        C123   1.273       .  A
O116        C125   1.272       .  A
O117        C126   1.274       .  A
O118        C125   1.273       .  A
O119        C126   1.274       .  A
O120        C127   1.272       .  A
O121        C127   1.272       .  A
C122        C218   1.429       .  S
C123        C232   1.430       .  S
C124        C278   1.453       .  S
C125        C228   1.430       .  S
C126        C213   1.453       .  S
C127        C252   1.432       .  S
Zn128       O133   2.010       .  S
Zn128       O137   2.051       .  S
Zn128       O144   2.010       .  S
Zn128       O132   1.960       .  S
Zn129       O134   2.006       .  S
Zn129       O136   2.015       .  S
Zn129       O140   2.045       .  S
Zn129       O132   1.970       .  S
Zn130       O135   2.046       .  S
Zn130       O138   2.015       .  S
Zn130       O141   2.013       .  S
Zn130       O132   1.971       .  S
Zn131       O139   2.005       .  S
Zn131       O142   2.045       .  S
Zn131       O143   2.012       .  S
Zn131       O132   1.970       .  S
O133        C145   1.272       .  A
O134        C146   1.272       .  A
O135        C147   1.274       .  A
O136        C145   1.272       .  A
O137        C147   1.274       .  A
O138        C146   1.273       .  A
O139        C148   1.271       .  A
O140        C149   1.273       .  A
O141        C148   1.272       .  A
O142        C149   1.273       .  A
O143        C150   1.271       .  A
O144        C150   1.272       .  A
C145        C225   1.431       .  S
C146        C260   1.429       .  S
C147        C211   1.454       .  S
C148        C216   1.428       .  S
C149        C273   1.453       .  S
C150        C247   1.430       .  S
Zn151       O160   2.017   1_565  S
Zn151       O167   2.046       .  S
Zn151       O434   2.009   1_554  S
Zn151       O155   1.970   1_564  S
Zn152       O157   2.046       .  S
Zn152       O159   2.017   1_545  S
Zn152       O163   2.016   1_545  S
Zn152       O433   1.972       .  S
Zn153       O158   2.010       .  S
Zn153       O164   2.006       .  S
Zn153       O439   2.046   1_554  S
Zn153       O155   1.960   1_554  S
Zn154       O162   2.012   1_565  S
Zn154       O166   2.047       .  S
Zn154       O443   2.006   1_554  S
Zn154       O155   1.971   1_564  S
O155       Zn430   1.972       .  S
O156       Zn429   2.009       .  S
O156        C168   1.272       .  A
O157        C169   1.274       .  A
O158        C170   1.272       .  A
O159        C168   1.273       .  A
O160        C170   1.272       .  A
O161       Zn431   2.046       .  S
O161        C169   1.274       .  A
O162        C171   1.271       .  A
O163        C172   1.273       .  A
O164        C171   1.272       .  A
O165       Zn432   2.006       .  S
O165        C172   1.271       .  A
O166        C173   1.274       .  A
O167        C173   1.274       .  A
C168        C255   1.430       .  S
C169        C209   1.453       .  S
C170        C229   1.431       .  S
C171        C233   1.429       .  S
C172        C222   1.429       .  S
C173        C275   1.453       .  S
Zn174       O179   2.008       .  S
Zn174       O190   2.010       .  S
Zn174       O461   2.050   1_554  S
Zn174       O456   1.961   1_554  S
Zn175       O182   2.015       .  S
Zn175       O186   2.045       .  S
Zn175       O458   2.005   1_554  S
Zn175       O456   1.970   1_554  S
Zn176       O181   2.047       .  S
Zn176       O184   2.017       .  S
Zn176       O187   2.016       .  S
Zn176       O178   1.972       .  S
Zn177       O188   2.047       .  S
Zn177       O189   2.014       .  S
Zn177       O463   2.008   1_554  S
Zn177       O456   1.971   1_554  S
O178       Zn452   1.961       .  S
O178       Zn453   1.970       .  S
O178       Zn455   1.971       .  S
O179        C191   1.272       .  A
O180       Zn453   2.005       .  S
O180        C192   1.271       .  A
O181        C193   1.274       .  A
O182        C191   1.272       .  A
O183       Zn452   2.050       .  S
O183        C193   1.274       .  A
O184        C192   1.273       .  A
O185       Zn455   2.008       .  S
O185        C194   1.272       .  A
O186        C195   1.273       .  A
O187        C194   1.273       .  A
O188        C195   1.274       .  A
O189        C196   1.272       .  A
O190        C196   1.272       .  A
C191        C250   1.430       .  S
C192        C220   1.430       .  S
C193        C207   1.454       .  S
C194        C262   1.430       .  S
C195        C271   1.453       .  S
C196        C223   1.430       .  S
C197        H198   1.112       .  S
C197        C203   1.546       .  S
C197        C202   1.546       .  S
C197        C201   1.546       .  S
C199        H200   1.112       .  S
C199        C205   1.547       .  S
C199        C204   1.546       .  S
C199        C206   1.546       .  S
C201        C204   1.373       .  D
C201        C210   1.462       .  S
C202        C205   1.374       .  D
C202        C208   1.463       .  S
C203        C206   1.373       .  D
C203        C242   1.462       .  S
C204        C214   1.462       .  S
C205        C212   1.463       .  S
C206        C238   1.462       .  S
C207        C208   1.217       .  T
C209        C210   1.216       .  T
C211        C212   1.217       .  T
C213        C214   1.216       .  T
C215        C216   1.202       .  T
C217        C218   1.202       .  T
C219        C220   1.203       .  T
C221        C222   1.202       .  T
C223        C224   1.203       .  T
C225        C226   1.203       .  T
C227        C228   1.203       .  T
C229        C230   1.204       .  T
C231        C232   1.203       .  T
C233        C234   1.202       .  T
C235        C236   1.203       .  T
C237        C238   1.216       .  T
C239        C240   1.202       .  T
C241        C242   1.216       .  T
C243        C244   1.203       .  T
C245        C246   1.203       .  T
C247        C248   1.203       .  T
C249        C250   1.203       .  T
C251        C252   1.204       .  T
C253        C254   1.203       .  T
C255        C256   1.203       .  T
C257        C258   1.203       .  T
C259        C260   1.203       .  T
C261        C262   1.203       .  T
C263        C264   1.203       .  T
C265        C266   1.203       .  T
C267        C268   1.217       .  T
C269        C270   1.217       .  T
C271        C272   1.216       .  T
C273        C274   1.216       .  T
C275        C276   1.216       .  T
C277        C278   1.216       .  T
C279        H280   1.112       .  S
C279        C285   1.547       .  S
C279        C284   1.547       .  S
C279        C283   1.546       .  S
C281        H282   1.112       .  S
C281        C287   1.546       .  S
C281        C286   1.546       .  S
C281        C288   1.546       .  S
C283        C286   1.373       .  D
C283        C550   1.462       .  S
C284        C287   1.373       .  D
C284        C554   1.462       .  S
C285        C288   1.374       .  D
C285        C545   1.463       .  S
C286        C552   1.461       .  S
C287        C555   1.462       .  S
C288        C547   1.463       .  S
C289        C290   1.407       .  A
C289        C294   1.399       .  A
C289        C542   1.440       .  S
C290        C291   1.399       .  A
C290        C544   1.439       .  S
C291        C292   1.399       .  A
C291        H296   1.085       .  S
C292        C293   1.406       .  A
C292        C539   1.440       .  S
C293        C294   1.399       .  A
C293        C537   1.439       .  S
C294        H295   1.085       .  S
C297        C298   1.407       .  A
C297        C302   1.399       .  A
C297        C531   1.440       .  S
C298        C299   1.399       .  A
C298        C535   1.441       .  S
C299        C300   1.399       .  A
C299        H304   1.085       .  S
C300        C301   1.407       .  A
C300        C534   1.440       .  S
C301        C302   1.399       .  A
C301        C529   1.441       .  S
C302        H303   1.085       .  S
C305        C306   1.407       .  A
C305        C310   1.399       .  A
C305        C527   1.440       .  S
C306        C307   1.399       .  A
C306        C526   1.439       .  S
C307        C308   1.399       .  A
C307        H312   1.085       .  S
C308        C309   1.407       .  A
C308        C521   1.440       .  S
C309        C310   1.399       .  A
C309        C524   1.439       .  S
C310        H311   1.085       .  S
Zn313       O318   2.010       .  S
Zn313       O329   2.010       .  S
Zn314       O321   2.012   1_655  S
Zn314       O325   2.045       .  S
Zn315       O320   2.046       .  S
Zn315       O323   2.014   1_455  S
Zn315       O326   2.015   1_455  S
Zn315       O317   1.971       .  S
Zn316       O327   2.046       .  S
Zn316       O328   2.016   1_655  S
O318        C330   1.273       .  A
O319        C331   1.271       .  A
O320        C332   1.274       .  A
O321        C330   1.271       .  A
O322        C332   1.274       .  A
O323        C331   1.272       .  A
O324        C333   1.272       .  A
O325        C334   1.273       .  A
O326        C333   1.272       .  A
O327        C334   1.274       .  A
O328        C335   1.272       .  A
O329        C335   1.272       .  A
C330        C543   1.430       .  S
C331        C517   1.429       .  S
C332        C546   1.454       .  S
C333        C523   1.430       .  S
C334        C519   1.453       .  S
C335        C536   1.431       .  S
Zn336       O341   2.009       .  S
Zn336       O345   2.015   1_655  S
Zn336       O352   2.047       .  S
Zn336       O340   1.971   1_655  S
Zn337       O342   2.047       .  S
Zn337       O344   2.016   1_455  S
Zn337       O348   2.017   1_455  S
Zn337       O340   1.972       .  S
Zn338       O343   2.011       .  S
Zn338       O346   2.051       .  S
Zn338       O349   2.009       .  S
Zn338       O340   1.961       .  S
Zn339       O347   2.015   1_655  S
Zn339       O350   2.005       .  S
Zn339       O351   2.044       .  S
Zn339       O340   1.971   1_655  S
O341        C353   1.272       .  A
O342        C354   1.274       .  A
O343        C355   1.272       .  A
O344        C353   1.273       .  A
O345        C355   1.272       .  A
O346        C354   1.274       .  A
O347        C356   1.272       .  A
O348        C357   1.273       .  A
O349        C356   1.272       .  A
O350        C357   1.271       .  A
O351        C358   1.273       .  A
O352        C358   1.274       .  A
C353        C522   1.430       .  S
C354        C548   1.454       .  S
C355        C532   1.431       .  S
C356        C541   1.430       .  S
C357        C514   1.430       .  S
C358        C515   1.453       .  S
C359        C360   1.406       .  A
C359        C364   1.399       .  A
C359        C513   1.440       .  S
C360        C361   1.398       .  A
C360        C518   1.439       .  S
C361        C362   1.399       .  A
C361        H366   1.085       .  S
C362        C363   1.407       .  A
C362        C512   1.439       .  S
C363        C364   1.399       .  A
C363        C509   1.439       .  S
C364        H365   1.085       .  S
C367        C368   1.407       .  A
C367        C372   1.399       .  A
C367        C505   1.440       .  S
C368        C369   1.399       .  A
C368        C508   1.441       .  S
C369        C370   1.399       .  A
C369        H374   1.085       .  S
C370        C371   1.407       .  A
C370        C502   1.440       .  S
C371        C372   1.399       .  A
C371        C504   1.440       .  S
C372        H373   1.085       .  S
C375        C376   1.407       .  A
C375        C380   1.398       .  A
C375        C495   1.439       .  S
C376        C377   1.399       .  A
C376        C499   1.439       .  S
C377        C378   1.399       .  A
C377        H382   1.085       .  S
C378        C379   1.406       .  A
C378        C497   1.440       .  S
C379        C380   1.398       .  A
C379        C493   1.438       .  S
C380        H381   1.085       .  S
Zn383       O388   2.007       .  S
Zn383       O392   2.047       .  S
Zn383       O399   2.010       .  S
Zn383       O387   1.960       .  S
Zn384       O389   2.006       .  S
Zn384       O391   2.012   1_545  S
Zn384       O395   2.046       .  S
Zn384       O387   1.971   1_545  S
Zn385       O390   2.046       .  S
Zn385       O393   2.017   1_565  S
Zn385       O396   2.015   1_565  S
Zn385       O387   1.972       .  S
Zn386       O394   2.009       .  S
Zn386       O397   2.047       .  S
Zn386       O398   2.018   1_545  S
Zn386       O387   1.971   1_545  S
O388        C400   1.272       .  A
O389        C401   1.271       .  A
O390        C402   1.273       .  A
O391        C400   1.271       .  A
O392        C402   1.274       .  A
O393        C401   1.273       .  A
O394        C403   1.272       .  A
O395        C404   1.274       .  A
O396        C403   1.273       .  A
O397        C404   1.274       .  A
O398        C405   1.272       .  A
O399        C405   1.272       .  A
C400        C496   1.429       .  S
C401        C510   1.430       .  S
C402        C556   1.453       .  S
C403        C506   1.430       .  S
C404        C491   1.453       .  S
C405        C530   1.432       .  S
Zn406       O411   2.010       .  S
Zn406       O415   2.051       .  S
Zn406       O422   2.010       .  S
Zn406       O410   1.960       .  S
Zn407       O412   2.006       .  S
Zn407       O414   2.015       .  S
Zn407       O418   2.045       .  S
Zn407       O410   1.970       .  S
Zn408       O413   2.046       .  S
Zn408       O416   2.015       .  S
Zn408       O419   2.013       .  S
Zn408       O410   1.971       .  S
Zn409       O417   2.005       .  S
Zn409       O420   2.045       .  S
Zn409       O421   2.012       .  S
Zn409       O410   1.970       .  S
O411        C423   1.272       .  A
O412        C424   1.272       .  A
O413        C425   1.274       .  A
O414        C423   1.272       .  A
O415        C425   1.274       .  A
O416        C424   1.273       .  A
O417        C426   1.271       .  A
O418        C427   1.273       .  A
O419        C426   1.272       .  A
O420        C427   1.273       .  A
O421        C428   1.271       .  A
O422        C428   1.272       .  A
C423        C503   1.431       .  S
C424        C538   1.429       .  S
C425        C489   1.454       .  S
C426        C494   1.428       .  S
C427        C551   1.453       .  S
C428        C525   1.430       .  S
Zn429       O438   2.017   1_565  S
Zn429       O445   2.046       .  S
Zn429       O433   1.970   1_565  S
Zn430       O435   2.046       .  S
Zn430       O437   2.017   1_545  S
Zn430       O441   2.016   1_545  S
Zn431       O436   2.010       .  S
Zn431       O442   2.006       .  S
Zn431       O433   1.960       .  S
Zn432       O440   2.012   1_565  S
Zn432       O444   2.047       .  S
Zn432       O433   1.971   1_565  S
O434        C446   1.272       .  A
O435        C447   1.274       .  A
O436        C448   1.272       .  A
O437        C446   1.273       .  A
O438        C448   1.272       .  A
O439        C447   1.274       .  A
O440        C449   1.271       .  A
O441        C450   1.273       .  A
O442        C449   1.272       .  A
O443        C450   1.271       .  A
O444        C451   1.274       .  A
O445        C451   1.274       .  A
C446        C533   1.430       .  S
C447        C487   1.453       .  S
C448        C507   1.431       .  S
C449        C511   1.429       .  S
C450        C500   1.429       .  S
C451        C553   1.453       .  S
Zn452       O457   2.008       .  S
Zn452       O468   2.010       .  S
Zn453       O460   2.015       .  S
Zn453       O464   2.045       .  S
Zn454       O459   2.047       .  S
Zn454       O462   2.017       .  S
Zn454       O465   2.016       .  S
Zn454       O456   1.972       .  S
Zn455       O466   2.047       .  S
Zn455       O467   2.014       .  S
O457        C469   1.272       .  A
O458        C470   1.271       .  A
O459        C471   1.274       .  A
O460        C469   1.272       .  A
O461        C471   1.274       .  A
O462        C470   1.273       .  A
O463        C472   1.272       .  A
O464        C473   1.273       .  A
O465        C472   1.273       .  A
O466        C473   1.274       .  A
O467        C474   1.272       .  A
O468        C474   1.272       .  A
C469        C528   1.430       .  S
C470        C498   1.430       .  S
C471        C485   1.454       .  S
C472        C540   1.430       .  S
C473        C549   1.453       .  S
C474        C501   1.430       .  S
C475        H476   1.112       .  S
C475        C481   1.546       .  S
C475        C480   1.546       .  S
C475        C479   1.546       .  S
C477        H478   1.112       .  S
C477        C483   1.547       .  S
C477        C482   1.546       .  S
C477        C484   1.546       .  S
C479        C482   1.373       .  D
C479        C488   1.462       .  S
C480        C483   1.374       .  D
C480        C486   1.463       .  S
C481        C484   1.373       .  D
C481        C520   1.462       .  S
C482        C492   1.462       .  S
C483        C490   1.463       .  S
C484        C516   1.462       .  S
C485        C486   1.217       .  T
C487        C488   1.216       .  T
C489        C490   1.217       .  T
C491        C492   1.216       .  T
C493        C494   1.202       .  T
C495        C496   1.202       .  T
C497        C498   1.203       .  T
C499        C500   1.202       .  T
C501        C502   1.203       .  T
C503        C504   1.203       .  T
C505        C506   1.203       .  T
C507        C508   1.204       .  T
C509        C510   1.203       .  T
C511        C512   1.202       .  T
C513        C514   1.203       .  T
C515        C516   1.216       .  T
C517        C518   1.202       .  T
C519        C520   1.216       .  T
C521        C522   1.203       .  T
C523        C524   1.203       .  T
C525        C526   1.203       .  T
C527        C528   1.203       .  T
C529        C530   1.204       .  T
C531        C532   1.203       .  T
C533        C534   1.203       .  T
C535        C536   1.203       .  T
C537        C538   1.203       .  T
C539        C540   1.203       .  T
C541        C542   1.203       .  T
C543        C544   1.203       .  T
C545        C546   1.217       .  T
C547        C548   1.217       .  T
C549        C550   1.216       .  T
C551        C552   1.216       .  T
C553        C554   1.216       .  T
C555        C556   1.216       .  T
