geometry optimzed in LAMMPS
_audit_creation_date              2020-11-30 
_audit_creation_method            'lammps2cif' 
_symmetry_space_group_name_H-M    'P1' 
_symmetry_Int_Tables_number       1 
_symmetry_cell_setting            triclinic 
loop_ 
_symmetry_equiv_pos_as_xyz 
  x,y,z 
_cell_length_a                    35.85105602 
_cell_length_b                    36.16137909271518 
_cell_length_c                    51.75779105376175 
_cell_angle_alpha                 89.93310591883024 
_cell_angle_beta                  90.0923491364992 
_cell_angle_gamma                 117.65322694277064 
loop_ 
_atom_site_label 
_atom_site_type_symbol 
_atom_site_fract_x 
_atom_site_fract_y 
_atom_site_fract_z 
_atom_site_charge 
C1          C  0.33562770  0.66475934  0.09988233     0.45500
H2          H  0.33637982  0.66531410  0.07844424    -0.03500
C3          C  0.33429759  0.66475717  0.15006322     0.45600
H4          H  0.33260899  0.66369825  0.17143850    -0.03500
C5          C  0.35941610  0.64220288  0.11209303    -0.17200
C6          C  0.35695826  0.70937083  0.11153717    -0.17000
C7          C  0.29009506  0.64285518  0.11104700    -0.17300
C8          C  0.35823142  0.64162379  0.13884345    -0.17300
C9          C  0.35588400  0.71009217  0.13835585    -0.16900
C10         C  0.28952696  0.64261652  0.13776650    -0.17200
C11         C  0.16564378  0.36770271  0.39109915     0.02300
C12         C  0.16364094  0.36255229  0.36398793     0.02300
C13         C  0.19665219  0.35956868  0.35141096    -0.18200
C14         C  0.23558027  0.37330944  0.36372522     0.02300
C15         C  0.23834991  0.37973819  0.39074227     0.02300
C16         C  0.20200226  0.37317446  0.40439017    -0.18200
H17         H  0.20428046  0.37935303  0.42499545     0.04400
H18         H  0.19527102  0.35647753  0.33052359     0.04400
C19         C  0.28631213  0.65565951  0.35771714     0.02300
C20         C  0.28356771  0.65372642  0.38498131     0.02300
C21         C  0.31646409  0.68383826  0.39965874    -0.18200
C22         C  0.34900177  0.71877711  0.38785338     0.02300
C23         C  0.35200118  0.72042856  0.36060015     0.02300
C24         C  0.32226422  0.68721105  0.34600382    -0.18200
H25         H  0.32351747  0.68948862  0.32508181     0.04400
H26         H  0.31327831  0.68358324  0.42051669     0.04400
C27         C  0.76996852  0.59632070  0.11847772     0.02300
C28         C  0.77686752  0.59684904  0.14530810     0.02300
C29         C  0.81719812  0.60825447  0.15465403    -0.18200
C30         C  0.84874707  0.61096412  0.13787031     0.02300
C31         C  0.84241867  0.61047560  0.11089714     0.02300
C32         C  0.80413759  0.60734231  0.10171377    -0.18200
H33         H  0.79883960  0.60713759  0.08106816     0.04400
H34         H  0.82165436  0.60681709  0.17532466     0.04400
Zr35       Zr  0.93109561  0.49194891  0.99870158     2.17500
O36         O  0.88740796  0.52126789  0.48450233    -0.51300
O37         O  0.87903206  0.44803902  0.02998314    -0.74500
O38         O  0.87793598  0.44670728  0.46830685    -0.81300
O39         O  0.98408418  0.57613644  0.05139377    -0.83000
O40         O  0.90353063  0.40891873  0.44645470    -0.78600
O41         O  0.92504059  0.54107253  0.02718408    -0.90300
O42         O  0.90545587  0.40900209  0.04972083    -0.76200
O43         O  0.93890926  0.42880099  0.49929499    -0.85700
O44         O  0.97035061  0.49426711  0.03659501    -0.85400
O45         O  0.96800246  0.49623348  0.46071153    -0.72200
O46         O  0.99675720  0.55510788  0.99647183    -0.84300
Zr47       Zr  0.08260641  0.50074416  0.49652157     2.26400
Zr48       Zr  0.97731098  0.43478901  0.46056074     2.06300
Zr49       Zr  0.03631574  0.55673494  0.03434507     2.10000
Zr50       Zr  0.97769534  0.43258100  0.03570073     1.78800
O51         O  0.06912166  0.63211040  0.02865216    -0.93100
O52         O  0.94646498  0.35680536  0.03265080    -0.40900
O53         O  0.04425754  0.49459522  0.03403093    -0.77500
O54         O  0.01762499  0.43638114  0.49818295    -0.96200
O55         O  0.04286297  0.49774956  0.45889066    -0.89500
O56         O  0.07329609  0.56076548  0.99525784    -0.92400
C57         C  0.87647592  0.41990380  0.04602464     1.01400
C58         C  0.94578050  0.56632835  0.04535186     1.14300
C59         C  0.87423777  0.41915877  0.45136054     1.05100
O60         O  0.94464419  0.35893112  0.46244772    -0.94500
O61         O  0.02919120  0.41452525  0.44498409    -0.90300
O62         O  0.09194129  0.45773491  0.46405768    -0.83400
C63         C  0.06901973  0.42867569  0.44826364     1.11700
O64         O  0.99535830  0.59416946  0.44358663    -0.96500
Zr65       Zr  0.03409058  0.55864920  0.45989351     1.88900
O66         O  0.13522620  0.54874710  0.46681186    -0.73200
O67         O  0.97826676  0.43918536  0.41353580    -0.52400
O68         O  0.02252320  0.54752359  0.41354507    -0.97100
O69         O  0.07267508  0.63454290  0.46285467    -0.54300
O70         O  0.10178080  0.57493403  0.44123347    -0.73700
C71         C  0.13378786  0.56981452  0.44718529     0.98700
O72         O  0.11783300  0.46243136  0.01262837    -0.62500
O73         O  0.04242064  0.56111688  0.08131088    -0.57300
O74         O  0.13499808  0.54102494  0.02717504    -0.94000
O75         O  0.10845374  0.57725444  0.04995175    -0.92400
O76         O  0.98160998  0.44474033  0.08211666    -0.92800
O77         O  0.01818642  0.40244610  0.05667351    -0.91500
C78         C  0.13792242  0.56720430  0.04505169     1.17500
H79         H  0.95548356  0.49441106  0.05209963     0.33500
H80         H  0.02371651  0.41301400  0.49775571     0.44300
H81         H  0.10039963  0.58538092  0.99517912     0.37800
H82         H  0.95126990  0.49623002  0.44606774     0.34300
H83         H  0.92935813  0.34633848  0.04853829     0.26100
H84         H  0.96326021  0.40983553  0.40759795     0.32000
H85         H  0.04134033  0.57489918  0.40568323     0.38000
H86         H  0.01150616  0.46464476  0.08546389     0.32400
H87         H  0.04157466  0.58726061  0.08600303     0.31300
H88         H  0.05164323  0.63657074  0.01541407     0.33000
H89         H  0.08324018  0.64388177  0.44513045     0.31900
H90         H  0.03562095  0.39964742  0.04275863     0.35900
H91         H  0.11238850  0.46114386  0.03144393     0.28700
H92         H  0.85781783  0.49961261  0.48673043     0.32900
H93         H  0.96534863  0.57411817  0.44635172     0.35800
H94         H  0.01546496  0.53852502  0.08774828     0.28400
H95         H  0.10140109  0.43312065  0.00685599     0.41200
H96         H  0.94014776  0.34992343  0.44415196     0.31300
H97         H  0.92551838  0.34917405  0.01854364     0.38900
H98         H  0.09827353  0.64067005  0.47303692     0.30800
H99         H  0.95912412  0.45106126  0.40913534     0.30800
H100        H  0.89190334  0.52423281  0.46558347     0.31100
Zr101      Zr  0.07983149  0.49048198  0.25152806     2.17500
O102        O  0.11707620  0.45447474  0.23382696    -0.51300
O103        O  0.13380787  0.53674089  0.28095607    -0.74500
O104        O  0.13366486  0.53470538  0.21968984    -0.81300
O105        O  0.02920213  0.41068903  0.30666872    -0.83000
O106        O  0.10555410  0.56844191  0.19597671    -0.78600
O107        O  0.08789986  0.44428351  0.28192853    -0.90300
O108        O  0.10788302  0.57625769  0.30058441    -0.76200
O109        O  0.07307176  0.55266523  0.24878895    -0.85700
O110        O  0.04313275  0.49254686  0.28963259    -0.85400
O111        O  0.04037733  0.48152418  0.21274669    -0.72200
O112        O  0.01350484  0.42756466  0.25247039    -0.84300
Zr113      Zr  0.92903321  0.48445864  0.24889196     2.26400
Zr114      Zr  0.03273101  0.54365067  0.21054748     2.06300
Zr115      Zr  0.97671053  0.43066078  0.29044056     2.10000
Zr116      Zr  0.03597141  0.55421054  0.28650602     1.78800
O117        O  0.94213627  0.35463207  0.28895215    -0.93100
O118        O  0.07184331  0.62905337  0.27809810    -0.40900
O119        O  0.96878840  0.49279057  0.28771902    -0.77500
O120        O  0.99553292  0.54758609  0.24832942    -0.96200
O121        O  0.96595569  0.48222726  0.21108988    -0.89500
O122        O  0.93633741  0.42252383  0.25218442    -0.92400
C123        C  0.13673677  0.56532103  0.29667654     1.01400
C124        C  0.06736848  0.41989649  0.30052869     1.14300
C125        C  0.13604388  0.56034484  0.20157338     1.05100
O126        O  0.06644024  0.61917482  0.20515780    -0.94500
O127        O  0.98195430  0.56426804  0.19437479    -0.90300
O128        O  0.91947340  0.52576691  0.21509425    -0.83400
C129        C  0.94272842  0.55238311  0.19812669     1.11700
O130        O  0.00536668  0.37650066  0.20307715    -0.96500
Zr131      Zr  0.97296916  0.42047352  0.21430118     1.88900
O132        O  0.87504061  0.43765641  0.21937547    -0.73200
O133        O  0.02941927  0.53038074  0.16422271    -0.52400
O134        O  0.98934966  0.42657144  0.16831019    -0.97100
O135        O  0.92723197  0.34559218  0.21898664    -0.54300
O136        O  0.90601982  0.40734931  0.19519053    -0.73700
C137        C  0.87528697  0.41506073  0.20031964     0.98700
O138        O  0.89248083  0.52209960  0.26535428    -0.62500
O139        O  0.97695331  0.43573846  0.33737532    -0.57300
O140        O  0.87602716  0.44223671  0.28156668    -0.94000
O141        O  0.90566919  0.41181469  0.30710330    -0.92400
O142        O  0.03348286  0.54961751  0.33348764    -0.92800
O143        O  0.99952901  0.59033554  0.30514692    -0.91500
C144        C  0.87469520  0.41898616  0.30091448     1.17500
H145        H  0.05883932  0.49367935  0.30504844     0.33500
H146        H  0.99054247  0.57158791  0.24709270     0.44300
H147        H  0.90905726  0.39836770  0.25339076     0.37800
H148        H  0.05622378  0.47975951  0.19814629     0.34300
H149        H  0.08912180  0.64146922  0.29372910     0.26100
H150        H  0.04377433  0.55847129  0.15627033     0.32000
H151        H  0.97304080  0.43974294  0.16072553     0.38000
H152        H  0.00628699  0.52495089  0.33738817     0.32400
H153        H  0.96853104  0.40703197  0.34357748     0.31300
H154        H  0.91185568  0.34623031  0.28650296     0.33000
H155        H  0.91778139  0.33555266  0.20118749     0.31900
H156        H  0.96937812  0.56951207  0.30479157     0.35900
H157        H  0.89415502  0.52079507  0.28440142     0.28700
H158        H  0.14717489  0.47282903  0.23772999     0.32900
H159        H  0.03289942  0.38933355  0.21207716     0.35800
H160        H  0.00700622  0.45182059  0.34223829     0.28400
H161        H  0.91118910  0.55179091  0.26118334     0.41200
H162        H  0.05566752  0.62939165  0.21961592     0.31300
H163        H  0.09261629  0.63281982  0.26444142     0.38900
H164        H  0.90151593  0.34271575  0.22775268     0.30800
H165        H  0.04872783  0.51824235  0.16113503     0.30800
H166        H  0.11475106  0.45594285  0.21482508     0.31100
C167        C  0.72691711  0.33278998  0.10809215     0.02300
C168        C  0.72774347  0.33824994  0.13521828     0.02300
C169        C  0.69324105  0.31064615  0.14999559    -0.18200
C170        C  0.66153259  0.27412293  0.13903211     0.02300
C171        C  0.66101046  0.26844029  0.11201420     0.02300
C172        C  0.69210911  0.29937640  0.09675408    -0.18200
H173        H  0.69241783  0.29424995  0.07611603     0.04400
H174        H  0.69476227  0.31365622  0.17088014     0.04400
C175        C  0.41765925  0.17580785  0.14197128     0.02300
C176        C  0.42219775  0.16780443  0.11570129     0.02300
C177        C  0.43655241  0.20048703  0.09789920    -0.18200
C178        C  0.44845549  0.24132553  0.10560147     0.02300
C179        C  0.44310590  0.24964016  0.13153054     0.02300
C180        C  0.42628881  0.21655685  0.14922648    -0.18200
H181        H  0.42231867  0.22319339  0.16916071     0.04400
H182        H  0.44170590  0.19456750  0.07800026     0.04400
C183        C  0.61724963  0.83683730  0.38287699     0.02300
C184        C  0.61597280  0.83089890  0.35583295     0.02300
C185        C  0.61047081  0.79222725  0.34626872    -0.18200
C186        C  0.59873028  0.75789472  0.36278114     0.02300
C187        C  0.60009596  0.76441707  0.38965401     0.02300
C188        C  0.61258481  0.80441653  0.39933468    -0.18200
H189        H  0.61175814  0.80857401  0.42006962     0.04400
H190        H  0.60994016  0.78728376  0.32558813     0.04400
Zr191      Zr  0.49895044  0.07136461  0.24994469     2.17500
O192        O  0.47502938  0.12225651  0.26198158    -0.51300
O193        O  0.54055766  0.12399793  0.21786948    -0.74500
O194        O  0.54041534  0.12039821  0.28478266    -0.81300
O195        O  0.41738464  0.02100759  0.19756372    -0.83000
O196        O  0.58402412  0.09785102  0.30280091    -0.78600
O197        O  0.43179327  0.06114776  0.23319298    -0.90300
O198        O  0.58415662  0.10236606  0.19889660    -0.76200
O199        O  0.56262250  0.06617381  0.24926045    -0.85700
O200        O  0.49811512  0.03582383  0.21061137    -0.85400
O201        O  0.49602926  0.03229706  0.28801275    -0.72200
O202        O  0.43687968  0.00422140  0.25015303    -0.84300
Zr203      Zr  0.49826083  0.92434760  0.24764753     2.26400
Zr204      Zr  0.55992897  0.02615529  0.28668167     2.06300
Zr205      Zr  0.43692179  0.96801532  0.21100300     2.10000
Zr206      Zr  0.56154129  0.03063511  0.21036936     1.78800
O207        O  0.36070055  0.93157062  0.21600797    -0.93100
O208        O  0.63748594  0.06434564  0.21732388    -0.40900
O209        O  0.50108113  0.96310855  0.20969359    -0.77500
O210        O  0.56051380  0.99084908  0.24736512    -0.96200
O211        O  0.49885237  0.95921197  0.28685712    -0.89500
O212        O  0.43421696  0.92872025  0.24849694    -0.92400
C213        C  0.57093741  0.12926505  0.20268679     1.01400
C214        C  0.41891215  0.05242884  0.20984515     1.14300
C215        C  0.57050541  0.12508202  0.30031360     1.05100
O216        O  0.63655457  0.06245409  0.28596447    -0.94500
O217        O  0.58355482  0.97554731  0.30049515    -0.90300
O218        O  0.55006961  0.91907456  0.27430598    -0.83400
C219        C  0.57506051  0.93855474  0.29290252     1.11700
O220        O  0.39548451  0.99569904  0.30751695    -0.96500
Zr221      Zr  0.43551125  0.96462660  0.28731682     1.88900
O222        O  0.45751763  0.87061901  0.27911872    -0.73200
O223        O  0.55251152  0.02035790  0.33349541    -0.52400
O224        O  0.44509485  0.97125383  0.33400444    -0.97100
O225        O  0.35927339  0.92462099  0.28224822    -0.54300
O226        O  0.42163611  0.89655495  0.30261273    -0.73700
C227        C  0.43237836  0.86817680  0.29747108     0.98700
O228        O  0.53434316  0.89039778  0.22546146    -0.62500
O229        O  0.43224654  0.96801971  0.16399771    -0.57300
O230        O  0.45188309  0.86995918  0.21766898    -0.94000
O231        O  0.41960230  0.89834238  0.19272544    -0.92400
O232        O  0.55092675  0.03200862  0.16395910    -0.92800
O233        O  0.59550075  0.99674481  0.18635281    -0.91500
C234        C  0.42745841  0.86791965  0.19883024     1.17500
H235        H  0.49725355  0.05142760  0.19566060     0.33500
H236        H  0.58524052  0.98670116  0.24692442     0.44300
H237        H  0.41020058  0.90127767  0.24794690     0.37800
H238        H  0.49492914  0.04687770  0.30337778     0.34300
H239        H  0.64274700  0.08615433  0.23043023     0.26100
H240        H  0.58165666  0.03562721  0.34018392     0.32000
H241        H  0.46361176  0.95852164  0.33809345     0.38000
H242        H  0.52377021  0.00698144  0.16054907     0.32400
H243        H  0.40249596  0.96065351  0.16031133     0.31300
H244        H  0.35109984  0.90666932  0.20477591     0.33000
H245        H  0.35412336  0.89755569  0.27464925     0.31900
H246        H  0.57396265  0.96709645  0.18531986     0.35900
H247        H  0.52698630  0.88968405  0.20695773     0.28700
H248        H  0.49949098  0.15016118  0.25958228     0.32900
H249        H  0.40027160  0.01963818  0.29624758     0.35800
H250        H  0.44835462  0.99765734  0.15876705     0.28400
H251        H  0.56459161  0.91093644  0.22608151     0.41200
H252        H  0.64486386  0.07039774  0.30418260     0.31300
H253        H  0.64329573  0.04352705  0.22649452     0.38900
H254        H  0.35212802  0.93896773  0.26826778     0.30800
H255        H  0.53918301  0.03796975  0.33833216     0.30800
H256        H  0.46987281  0.11930312  0.28084358     0.31100
Zr257      Zr  0.45728418  0.53431104  0.26549104     2.17500
O258        O  0.43084354  0.58375407  0.27600900    -0.51300
O259        O  0.39408025  0.49226217  0.29084149    -0.74500
O260        O  0.42811548  0.55568364  0.22766561    -0.81300
O261        O  0.53851551  0.56785209  0.32231426    -0.83000
O262        O  0.42890231  0.51969519  0.19184933    -0.78600
O263        O  0.49863919  0.58795146  0.29750092    -0.90300
O264        O  0.37219516  0.42988610  0.27247776    -0.76200
O265        O  0.42602954  0.46897819  0.24333230    -0.85700
O266        O  0.46448472  0.48511363  0.29413142    -0.85400
O267        O  0.49740916  0.54579806  0.22635074    -0.72200
O268        O  0.53049153  0.55674715  0.27352827    -0.84300
Zr269      Zr  0.54625633  0.45426112  0.23994880     2.26400
Zr270      Zr  0.46616719  0.47987779  0.20459207     2.06300
Zr271      Zr  0.53807715  0.50766024  0.30122363     2.10000
Zr272      Zr  0.43388886  0.42048204  0.27137963     1.78800
O273        O  0.60740194  0.55337134  0.31891416    -0.93100
O274        O  0.38198359  0.35986604  0.24809731    -0.40900
O275        O  0.50690668  0.44241040  0.27909054    -0.77500
O276        O  0.47190025  0.42886760  0.23244307    -0.96200
O277        O  0.53996630  0.50405383  0.21218128    -0.89500
O278        O  0.57790167  0.51903914  0.26245699    -0.92400
C279        C  0.36775020  0.45341734  0.28904931     1.01400
C280        C  0.52452017  0.59363783  0.31628901     1.14300
C281        C  0.42048710  0.54654489  0.20337946     1.05100
O282        O  0.39691210  0.43410010  0.18685234    -0.94500
O283        O  0.47282398  0.42680217  0.17913416    -0.90300
O284        O  0.52152181  0.41417331  0.20005499    -0.83400
C285        C  0.49498472  0.40746502  0.18165721     1.11700
O286        O  0.57056423  0.63599971  0.23636352    -0.96500
Zr287      Zr  0.56992116  0.56828219  0.23530496     1.88900
O288        O  0.61486476  0.49421076  0.21981486    -0.73200
O289        O  0.49819256  0.51242659  0.16369248    -0.52400
O290        O  0.58522964  0.60092110  0.19277019    -0.97100
O291        O  0.62834727  0.61700473  0.26183790    -0.54300
O292        O  0.62792848  0.56184094  0.21814425    -0.73700
C293        C  0.63783941  0.53277767  0.21405426     0.98700
O294        O  0.56492522  0.39750293  0.23745527    -0.62500
O295        O  0.50870421  0.47927505  0.34338476    -0.57300
O296        O  0.57432626  0.43033179  0.27640326    -0.94000
O297        O  0.57373854  0.46566999  0.31250708    -0.92400
O298        O  0.41373293  0.40241461  0.31640903    -0.92800
O299        O  0.42843326  0.35258001  0.28220625    -0.91500
C300        C  0.58232557  0.43919522  0.30060843     1.17500
H301        H  0.45110012  0.48315410  0.31060385     0.33500
H302        H  0.45893165  0.40127962  0.22498363     0.44300
H303        H  0.60706336  0.52738126  0.26643866     0.37800
H304        H  0.49743469  0.56769529  0.21568739     0.34300
H305        H  0.35691076  0.34802169  0.25945338     0.26100
H306        H  0.47641098  0.49705402  0.15051530     0.32000
H307        H  0.57770858  0.57755690  0.18048869     0.38000
H308        H  0.38403457  0.38050026  0.31574784     0.32400
H309        H  0.49231503  0.44882350  0.34049441     0.31300
H310        H  0.60573346  0.54501662  0.33727137     0.33000
H311        H  0.64783577  0.60470624  0.26330429     0.31900
H312        H  0.45785807  0.35793215  0.28494362     0.35900
H313        H  0.53889595  0.37222442  0.23248311     0.28700
H314        H  0.40108552  0.57050193  0.27026101     0.32900
H315        H  0.59911370  0.65652270  0.23069051     0.35800
H316        H  0.53322089  0.48248959  0.35379469     0.28400
H317        H  0.58392351  0.40409675  0.22237954     0.41200
H318        H  0.40007536  0.43902949  0.16797180     0.31300
H319        H  0.37361940  0.37174365  0.23328165     0.38900
H320        H  0.61629039  0.61418504  0.27936676     0.30800
H321        H  0.49976604  0.54048254  0.16425781     0.30800
H322        H  0.44570545  0.60792377  0.26431555     0.31100
Zr323      Zr  0.50625271  0.91916841  0.49888396     2.17500
O324        O  0.55003741  0.88357976  0.01323094    -0.51300
O325        O  0.46051310  0.86671610  0.46852028    -0.74500
O326        O  0.46979919  0.86456125  0.03041239    -0.81300
O327        O  0.58021532  0.97434624  0.44232766    -0.83000
O328        O  0.43194001  0.88881716  0.05370214    -0.78600
O329        O  0.55066743  0.91369406  0.46559201    -0.90300
O330        O  0.41856182  0.89153784  0.45054813    -0.76200
O331        O  0.44613545  0.92193648  0.00318669    -0.85700
O332        O  0.50020991  0.95659350  0.46238817    -0.85400
O333        O  0.51967826  0.95685871  0.03700148    -0.72200
O334        O  0.56790635  0.98642107  0.49828810    -0.84300
Zr335      Zr  0.50909223  0.06513406  0.00291144     2.26400
Zr336      Zr  0.45566409  0.96181261  0.04148295     2.06300
Zr337      Zr  0.56057719  0.02358212  0.46172818     2.10000
Zr338      Zr  0.43677525  0.96063053  0.46735187     1.78800
O339        O  0.63703475  0.05810148  0.45892853    -0.93100
O340        O  0.36228722  0.92221622  0.47835705    -0.40900
O341        O  0.49677716  0.02873088  0.46584585    -0.77500
O342        O  0.44700235  0.99791620  0.00469958    -0.96200
O343        O  0.51606834  0.02888751  0.03965235    -0.89500
O344        O  0.57012547  0.06201708  0.50066516    -0.92400
C345        C  0.43130758  0.86383964  0.45304156     1.01400
C346        C  0.57270790  0.93668842  0.44685079     1.14300
C347        C  0.44257427  0.86034611  0.04803215     1.05100
O348        O  0.37945882  0.93232685  0.04496418    -0.94500
O349        O  0.44052999  0.01291570  0.06276949    -0.90300
O350        O  0.46719113  0.07171045  0.03777323    -0.83400
C351        C  0.44720968  0.05016369  0.05757321     1.11700
O352        O  0.62488706  0.99251729  0.04356219    -0.96500
Zr353      Zr  0.57953600  0.02461072  0.03457993     1.88900
O354        O  0.55689679  0.11783665  0.03257587    -0.73200
O355        O  0.46659517  0.95874574  0.08778131    -0.52400
O356        O  0.57618891  0.00862204  0.08053596    -0.97100
O357        O  0.65429433  0.07256926  0.02908592    -0.54300
O358        O  0.59175998  0.08947432  0.05504841    -0.73700
C359        C  0.58172934  0.11868209  0.05076165     0.98700
O360        O  0.46858397  0.10438912  0.49089077    -0.62500
O361        O  0.55006590  0.02478065  0.41527569    -0.57300
O362        O  0.54762574  0.12150663  0.47275687    -0.94000
O363        O  0.57875689  0.09390609  0.44644029    -0.92400
O364        O  0.43955386  0.96667714  0.42045495    -0.92800
O365        O  0.39592540  0.99369195  0.45079170    -0.91500
C366        C  0.57097324  0.12391126  0.45310531     1.17500
H367        H  0.49892423  0.94231173  0.44642086     0.33500
H368        H  0.42226863  0.00175737  0.00696362     0.44300
H369        H  0.59423488  0.08935957  0.49952170     0.37800
H370        H  0.52306573  0.94144490  0.05128104     0.34300
H371        H  0.34803774  0.90945673  0.46189290     0.26100
H372        H  0.43840531  0.93981362  0.09480596     0.32000
H373        H  0.55718831  0.01883286  0.08789441     0.38000
H374        H  0.46237087  0.99514964  0.41696771     0.32400
H375        H  0.57849388  0.03493107  0.40771319     0.31300
H376        H  0.64311120  0.06619334  0.44053374     0.33000
H377        H  0.65577067  0.09955280  0.02386200     0.31900
H378        H  0.41700022  0.02302616  0.44752814     0.35900
H379        H  0.47158715  0.10640117  0.47186008     0.28700
H380        H  0.53103066  0.85339338  0.01083060     0.32900
H381        H  0.64277630  0.00817064  0.05836051     0.35800
H382        H  0.53470094  0.99510805  0.41002811     0.28400
H383        H  0.43848958  0.08457015  0.49362456     0.41200
H384        H  0.37287515  0.92028011  0.06257608     0.31300
H385        H  0.35979766  0.89831450  0.48889813     0.38900
H386        H  0.66267752  0.06257479  0.01342540     0.30800
H387        H  0.48285117  0.94300922  0.08959856     0.30800
H388        H  0.55198350  0.88777063  0.03218981     0.31100
Zr389      Zr  0.46199364  0.53907371  0.48767822     2.17500
O390        O  0.40293268  0.55296358  0.97800366    -0.51300
O391        O  0.49707806  0.60351441  0.46273333    -0.74500
O392        O  0.44159861  0.56802081  0.02444674    -0.81300
O393        O  0.42873018  0.45360723  0.43494912    -0.83000
O394        O  0.48281492  0.57281601  0.05889177    -0.78600
O395        O  0.40698299  0.49415408  0.45727885    -0.90300
O396        O  0.56069880  0.63078809  0.48076887    -0.76200
O397        O  0.52912283  0.57778017  0.00688976    -0.85700
O398        O  0.51298449  0.53885616  0.45739262    -0.85400
O399        O  0.45918845  0.50154616  0.02587714    -0.72200
O400        O  0.44693453  0.46814612  0.48044165    -0.84300
Zr401      Zr  0.56468470  0.47194042  0.00870571     2.26400
Zr402      Zr  0.52686584  0.54078032  0.04556323     2.06300
Zr403      Zr  0.49781838  0.46766537  0.45089945     2.10000
Zr404      Zr  0.57953456  0.57557616  0.47836433     1.78800
O405        O  0.46088836  0.40525400  0.42457567    -0.93100
O406        O  0.64036778  0.63025497  0.50020113    -0.40900
O407        O  0.56505701  0.50488606  0.47104335    -0.77500
O408        O  0.58016297  0.54333539  0.01601436    -0.96200
O409        O  0.51323536  0.47009105  0.03866350    -0.89500
O410        O  0.49461525  0.43009325  0.48961870    -0.92400
C411        C  0.53479037  0.63304867  0.46491641     1.01400
C412        C  0.40139008  0.46610818  0.44019197     1.14300
C413        C  0.45318399  0.57807845  0.04816737     1.05100
O414        O  0.56830515  0.60965174  0.06438567    -0.94500
O415        O  0.58628320  0.54252359  0.06895621    -0.90300
O416        O  0.60574104  0.49888046  0.04812116    -0.83400
C417        C  0.61003032  0.52497883  0.06617684     1.11700
O418        O  0.37211246  0.40992135  0.02113392    -0.96500
Zr419      Zr  0.44719869  0.43160136  0.01800858     1.88900
O420        O  0.53841249  0.40615121  0.03147392    -0.73200
O421        O  0.49690058  0.50773818  0.08673076    -0.52400
O422        O  0.42247436  0.41920854  0.06256923    -0.97100
O423        O  0.40431488  0.36941111  0.99251859    -0.54300
O424        O  0.46775998  0.38207758  0.03455775    -0.73700
C425        C  0.50139174  0.37886035  0.03809716     0.98700
O426        O  0.62870553  0.46751177  0.50826207    -0.62500
O427        O  0.52633685  0.50580299  0.41083714    -0.57300
O428        O  0.57961488  0.43554054  0.47429972    -0.94000
O429        O  0.53952121  0.43218677  0.43948975    -0.92400
O430        O  0.59176117  0.59747859  0.43325907    -0.92800
O431        O  0.64941549  0.58948157  0.46372804    -0.91500
C432        C  0.56761801  0.42504313  0.45071634     1.17500
H433        H  0.51179510  0.55148699  0.44117022     0.33500
H434        H  0.60819168  0.55940425  0.02289255     0.44300
H435        H  0.48914742  0.40194122  0.48559601     0.37800
H436        H  0.43687623  0.49949376  0.03714868     0.34300
H437        H  0.65042674  0.65475658  0.48858633     0.26100
H438        H  0.51078768  0.53016814  0.09968279     0.32000
H439        H  0.44598400  0.41926898  0.07267186     0.38000
H440        H  0.60870306  0.62822640  0.43386905     0.32400
H441        H  0.54693424  0.49655531  0.40496235     0.31300
H442        H  0.47056676  0.41437865  0.40668422     0.33000
H443        H  0.41752694  0.35088252  0.99468316     0.31900
H444        H  0.64891455  0.56187235  0.46383385     0.35900
H445        H  0.65041176  0.49629081  0.51231615     0.28700
H446        H  0.41549032  0.58546970  0.48245858     0.32900
H447        H  0.35949799  0.38163013  0.02885223     0.35800
H448        H  0.50279680  0.49322846  0.39833864     0.28400
H449        H  0.63685428  0.45949319  0.01834816     0.41200
H450        H  0.57735167  0.62894114  0.04943842     0.31300
H451        H  0.62839822  0.63797239  0.51523193     0.38900
H452        H  0.41014584  0.37888578  0.97432920     0.30800
H453        H  0.46736468  0.50289948  0.08625185     0.30800
H454        H  0.38160719  0.53763796  0.99141952     0.31100
C455        C  0.67241372  0.32252793  0.40163745     0.45500
H456        H  0.67194044  0.32221787  0.42308293    -0.03500
C457        C  0.67421455  0.32331177  0.35139946     0.45600
H458        H  0.67514057  0.32341829  0.32996458    -0.03500
C459        C  0.64900964  0.27801014  0.38973925    -0.17200
C460        C  0.65098451  0.34738726  0.38948799    -0.17000
C461        C  0.71796557  0.34239634  0.39040790    -0.17300
C462        C  0.65019871  0.27847990  0.36298240    -0.17300
C463        C  0.65233157  0.34828837  0.36269458    -0.16900
C464        C  0.71896406  0.34304182  0.36372323    -0.17200
C465        C  0.58813185  0.35979711  0.39934412    -0.21200
C466        C  0.62897269  0.36623032  0.40571163    -0.09300
C467        C  0.64842383  0.39066012  0.42766809     0.29600
C468        C  0.62824833  0.40914554  0.44217214    -0.21200
C469        C  0.58797519  0.40383359  0.43537527    -0.09300
C470        C  0.56795794  0.37838557  0.41377355     0.29600
F471        F  0.52834441  0.37037978  0.40693332    -0.19800
H472        H  0.57163924  0.34013712  0.38308652     0.17900
H473        H  0.64463545  0.42832602  0.45862124     0.17900
F474        F  0.68754197  0.39767523  0.43485459    -0.19800
C475        C  0.58336314  0.19797370  0.44228126    -0.21200
C476        C  0.59058160  0.16353018  0.43689616    -0.09300
C477        C  0.61725671  0.16761302  0.41570362     0.29600
C478        C  0.63596878  0.20449309  0.40092575    -0.21200
C479        C  0.62850354  0.23864788  0.40611942    -0.09300
C480        C  0.60207245  0.23494658  0.42726350     0.29600
F481        F  0.59357545  0.26679745  0.43320998    -0.19800
H482        H  0.56310478  0.19637880  0.45819684     0.17900
H483        H  0.65708050  0.20644799  0.38547460     0.17900
F484        F  0.62581822  0.13604472  0.40908325    -0.19800
C485        C  0.64397153  0.41320376  0.35247579    -0.21200
C486        C  0.63608089  0.37234903  0.34586554    -0.09300
C487        C  0.61202232  0.35468663  0.32337730     0.29600
C488        C  0.59572384  0.37680082  0.30854380    -0.21200
C489        C  0.60201326  0.41689430  0.31586201    -0.09300
C490        C  0.62658212  0.43475468  0.33817116     0.29600
F491        F  0.63420550  0.47335072  0.34618553    -0.19800
H492        H  0.66330276  0.42845441  0.36913028     0.17900
H493        H  0.57688313  0.36182514  0.29166066     0.17900
F494        F  0.60259749  0.31522503  0.31623607    -0.19800
C495        C  0.58570051  0.21661116  0.34455912    -0.21200
C496        C  0.62982192  0.23980504  0.34629378    -0.09300
C497        C  0.65427392  0.22497528  0.33273742     0.29600
C498        C  0.63500222  0.18741460  0.31844289    -0.21200
C499        C  0.59081873  0.16444633  0.31634345    -0.09300
C500        C  0.56642826  0.17983473  0.32953718     0.29600
F501        F  0.52377531  0.15858346  0.32852677    -0.19800
H502        H  0.56607583  0.22710874  0.35486307     0.17900
H503        H  0.65474443  0.17659379  0.30859199     0.17900
F504        F  0.69692736  0.24618072  0.33397340    -0.19800
C505        C  0.59651617  0.68803192  0.35671775    -0.21200
C506        C  0.57965093  0.71531550  0.35153664    -0.09300
C507        C  0.54300771  0.70122185  0.33639197     0.29600
C508        C  0.52453535  0.66122716  0.32584934    -0.21200
C509        C  0.54185091  0.63404278  0.33029810    -0.09300
C510        C  0.57786976  0.64769701  0.34627230     0.29600
F511        F  0.59592209  0.62273522  0.35126567    -0.19800
H512        H  0.62437515  0.69816084  0.36867200     0.17900
H513        H  0.49667250  0.65170591  0.31397855     0.17900
F514        F  0.52413772  0.72565785  0.33241635    -0.19800
C515        C  0.56906326  0.87012479  0.30442493    -0.21200
C516        C  0.59133302  0.91366655  0.30726074    -0.09300
C517        C  0.62467905  0.93055893  0.32518001     0.29600
C518        C  0.63489239  0.90381348  0.33991123    -0.21200
C519        C  0.61079806  0.86011674  0.33771829    -0.09300
C520        C  0.57769575  0.84387022  0.31974590     0.29600
F521        F  0.55084969  0.80248480  0.31833466    -0.19800
H522        H  0.54249378  0.85561199  0.29139148     0.17900
H523        H  0.66042570  0.91712541  0.35375098     0.17900
F524        F  0.64653727  0.97239151  0.32894078    -0.19800
C525        C  0.60945261  0.72859327  0.42767635    -0.21200
C526        C  0.58303202  0.72998639  0.40831593    -0.09300
C527        C  0.53981599  0.70186214  0.40884881     0.29600
C528        C  0.52378206  0.67118990  0.42793983    -0.21200
C529        C  0.55044586  0.66895062  0.44710322    -0.09300
C530        C  0.59350335  0.69866825  0.44703194     0.29600
F531        F  0.62077932  0.69841199  0.46513786    -0.19800
H532        H  0.64259486  0.75099625  0.42782081     0.17900
H533        H  0.49060729  0.64899622  0.42755651     0.15300
F534        F  0.51302578  0.70480291  0.39139426    -0.19800
C535        C  0.63943297  0.89702567  0.41294169    -0.21200
C536        C  0.61024371  0.86981337  0.39497699    -0.09300
C537        C  0.57011165  0.86744779  0.39303504     0.29600
C538        C  0.55905555  0.89128093  0.40931388    -0.21200
C539        C  0.58754317  0.91697546  0.42795531    -0.09300
C540        C  0.62808685  0.92060847  0.42947610     0.29600
F541        F  0.65551721  0.94488212  0.44787428    -0.19800
H542        H  0.66994166  0.89803143  0.41512317     0.17900
H543        H  0.52749383  0.88810341  0.40830534     0.17900
F544        F  0.54041396  0.83920562  0.37712552    -0.19800
C545        C  0.45849682  0.30423862  0.04606934    -0.21200
C546        C  0.49546526  0.34099007  0.05137569    -0.09300
C547        C  0.52050922  0.34264113  0.07263603     0.29600
C548        C  0.50630628  0.30894428  0.08967834    -0.21200
C549        C  0.46663247  0.27433851  0.08598255    -0.09300
C550        C  0.44385825  0.27125427  0.06334237     0.29600
F551        F  0.40603057  0.23761086  0.05879276    -0.19800
H552        H  0.43916529  0.30238691  0.02950402     0.17900
H553        H  0.52538438  0.31062101  0.10628273     0.17900
F554        F  0.55645677  0.37786985  0.07817698    -0.19800
C555        C  0.44939181  0.35418845  0.14904893    -0.21200
C556        C  0.48631751  0.37182293  0.16419854    -0.09300
C557        C  0.51099915  0.35080407  0.16572289     0.29600
C558        C  0.49652433  0.31118973  0.15498967    -0.21200
C559        C  0.45854563  0.29268520  0.14128121    -0.09300
C560        C  0.43586220  0.31506207  0.13739297     0.29600
F561        F  0.39970426  0.29817200  0.12340762    -0.19800
H562        H  0.42983752  0.36960232  0.14726640     0.17900
H563        H  0.51493935  0.29467464  0.15745209     0.17900
F564        F  0.54842271  0.36765640  0.17840218    -0.19800
C565        C  0.38106682  0.10197330  0.15880522    -0.21200
C566        C  0.41034362  0.14426613  0.16236349    -0.09300
C567        C  0.43703236  0.15557959  0.18405252     0.29600
C568        C  0.43619745  0.12515548  0.20070158    -0.21200
C569        C  0.41007668  0.08274399  0.19575421    -0.09300
C570        C  0.38187312  0.07118189  0.17485345     0.29600
F571        F  0.35678636  0.03034232  0.16919393    -0.19800
H572        H  0.35956295  0.09253582  0.14256095     0.17900
H573        H  0.45925464  0.13485215  0.21605191     0.17900
F574        F  0.46716784  0.19553466  0.18783139    -0.19800
C575        C  0.45015093  0.11661548  0.11352394    -0.21200
C576        C  0.41944549  0.12825269  0.10603894    -0.09300
C577        C  0.39272021  0.10791748  0.08511331     0.29600
C578        C  0.40013383  0.08011193  0.06995525    -0.21200
C579        C  0.43298179  0.07105142  0.07631062    -0.09300
C580        C  0.45645862  0.08756277  0.09894730     0.29600
F581        F  0.48809471  0.07864760  0.10549525    -0.19800
H582        H  0.47125617  0.13231451  0.12944299     0.17900
H583        H  0.38167779  0.06725549  0.05260692     0.17900
F584        F  0.36177332  0.11766321  0.07822141    -0.19800
C585        C  0.63693739  0.18643619  0.18594855    -0.21200
C586        C  0.59309403  0.16878914  0.18840262    -0.09300
C587        C  0.57135761  0.18706316  0.17528343     0.29600
C588        C  0.59339656  0.22185646  0.15925881    -0.21200
C589        C  0.63724718  0.23885798  0.15662752    -0.09300
C590        C  0.65887029  0.22126235  0.17042292     0.29600
F591        F  0.70121167  0.23683112  0.16795803    -0.19800
H592        H  0.65423575  0.17272314  0.19580219     0.17900
H593        H  0.57635685  0.23510200  0.14866186     0.17900
F594        F  0.52884550  0.16987797  0.17681045    -0.19800
C595        C  0.58845169  0.18787459  0.06474150    -0.21200
C596        C  0.59967390  0.15565057  0.06808898    -0.09300
C597        C  0.62813436  0.15945511  0.08806326     0.29600
C598        C  0.64582104  0.19523028  0.10345270    -0.21200
C599        C  0.63534962  0.22765535  0.09950725    -0.09300
C600        C  0.60623657  0.22359028  0.08021682     0.29600
F601        F  0.59619105  0.25489493  0.07579755    -0.19800
H602        H  0.56650063  0.18594230  0.04976216     0.17900
H603        H  0.66933193  0.19851017  0.11769097     0.17900
F604        F  0.64020820  0.12948376  0.09226477    -0.19800
C605        C  0.80577788  0.40877007  0.18508596    -0.21200
C606        C  0.83815697  0.39718098  0.18276186    -0.09300
C607        C  0.83491770  0.36880991  0.16312819     0.29600
C608        C  0.79980161  0.35166457  0.14705368    -0.21200
C609        C  0.76752510  0.36297578  0.14945294    -0.09300
C610        C  0.77075486  0.39185613  0.16857699     0.29600
F611        F  0.73965746  0.40293845  0.17160913    -0.19800
H612        H  0.80738229  0.43076366  0.19977364     0.17900
H613        H  0.79700905  0.32790511  0.13337996     0.17900
F614        F  0.86496126  0.35639420  0.15974847    -0.19800
C615        C  0.80178364  0.40943147  0.31305787    -0.21200
C616        C  0.83487582  0.39919986  0.31715626    -0.09300
C617        C  0.82905636  0.36981648  0.33688808     0.29600
C618        C  0.79179809  0.35180788  0.35176796    -0.21200
C619        C  0.75901833  0.36237099  0.34771884    -0.09300
C620        C  0.76455006  0.39131652  0.32795661     0.29600
F621        F  0.73417886  0.40288780  0.32331764    -0.19800
H622        H  0.80468125  0.43179137  0.29825882     0.17900
H623        H  0.78829210  0.32875433  0.36618239     0.17900
F624        F  0.85903361  0.35773700  0.34168797    -0.19800
C625        C  0.78116080  0.39881688  0.08737726    -0.21200
C626        C  0.76473517  0.35580855  0.09180088    -0.09300
C627        C  0.78481919  0.33419230  0.08079040     0.29600
C628        C  0.82110877  0.35537511  0.06600811    -0.21200
C629        C  0.83753818  0.39827257  0.06134453    -0.09300
C630        C  0.81716746  0.41995457  0.07202594     0.29600
F631        F  0.83299121  0.46171513  0.06848107    -0.19800
H632        H  0.76611956  0.41589550  0.09581468     0.17900
H633        H  0.83634427  0.33813674  0.05805043     0.17900
F634        F  0.77004519  0.29269356  0.08510675    -0.19800
C635        C  0.77454825  0.33706914  0.41745877    -0.21200
C636        C  0.75697343  0.36158077  0.40712065    -0.09300
C637        C  0.77805846  0.40487719  0.41176382     0.29600
C638        C  0.81538854  0.42300133  0.42653835    -0.21200
C639        C  0.83374686  0.39877658  0.43626391    -0.09300
C640        C  0.81288881  0.35544622  0.43136581     0.29600
F641        F  0.82923230  0.33073995  0.44035201    -0.19800
H642        H  0.75911838  0.30370147  0.41409271     0.17900
H643        H  0.83068124  0.45640081  0.42980884     0.17900
F644        F  0.76275449  0.42981377  0.40173778    -0.19800
C645        C  0.91027664  0.62648533  0.16631311    -0.21200
C646        C  0.87916766  0.59922486  0.14933349    -0.09300
C647        C  0.87066353  0.55725760  0.14774289     0.29600
C648        C  0.89206170  0.54243239  0.16358882    -0.21200
C649        C  0.92237628  0.56933885  0.18093863    -0.09300
C650        C  0.93229728  0.61165430  0.18190181     0.29600
F651        F  0.96139146  0.63774391  0.19894130    -0.19800
H652        H  0.91606452  0.65854080  0.16823553     0.17900
H653        H  0.88435467  0.50970752  0.16275618     0.17900
F654        F  0.83944552  0.52996814  0.13224490    -0.19800
C655        C  0.87748624  0.56118577  0.05866712    -0.21200
C656        C  0.92157593  0.58221187  0.06088022    -0.09300
C657        C  0.94010537  0.61509428  0.07882064     0.29600
C658        C  0.91450926  0.62602952  0.09422983    -0.21200
C659        C  0.87029915  0.60350042  0.09249499    -0.09300
C660        C  0.85225056  0.57080654  0.07451946     0.29600
F661        F  0.81002642  0.54583750  0.07334705    -0.19800
H662        H  0.86183177  0.53537971  0.04538883     0.17900
H663        H  0.92910633  0.65122163  0.10804515     0.17900
F664        F  0.98253629  0.63621103  0.08171373    -0.19800
C665        C  0.74089668  0.60398802  0.18407643    -0.21200
C666        C  0.74237094  0.57889263  0.16403341    -0.09300
C667        C  0.71386251  0.53599490  0.16372004     0.29600
C668        C  0.68120868  0.51955914  0.18167640    -0.21200
C669        C  0.67759163  0.54569751  0.20035910    -0.09300
C670        C  0.70909518  0.58744134  0.20237750     0.29600
F671        F  0.70803174  0.61267789  0.22146771    -0.19800
H672        H  0.76412083  0.63655918  0.18529892     0.17900
H673        H  0.65766707  0.48715910  0.18011754     0.17900
F674        F  0.71758273  0.51017608  0.14608379    -0.19800
C675        C  0.65944589  0.57438293  0.09905945    -0.21200
C676        C  0.64746663  0.53897877  0.08316710    -0.09300
C677        C  0.67490352  0.52115001  0.08096974     0.29600
C678        C  0.71436899  0.54023141  0.09262330    -0.21200
C679        C  0.72711521  0.57670373  0.10725810    -0.09300
C680        C  0.69893131  0.59304783  0.11111506     0.29600
F681        F  0.71024038  0.62791951  0.12557068    -0.19800
H682        H  0.63907810  0.58881104  0.10128573     0.17900
H683        H  0.73519348  0.52636330  0.09026810     0.17900
F684        F  0.66432875  0.48586843  0.06705809    -0.19800
C685        C  0.40936696  0.76501338  0.32989284    -0.21200
C686        C  0.37665411  0.76003402  0.34667405    -0.09300
C687        C  0.36241235  0.79015137  0.34693210     0.29600
C688        C  0.38149154  0.82537903  0.33138360    -0.21200
C689        C  0.41405311  0.83064728  0.31425116    -0.09300
C690        C  0.42792443  0.79998716  0.31364736     0.29600
F691        F  0.45868468  0.80327223  0.29714489    -0.19800
H692        H  0.41958750  0.74118283  0.32884968     0.17900
H693        H  0.36939511  0.84779612  0.33212358     0.17900
F694        F  0.32791056  0.78397062  0.36082648    -0.19800
C695        C  0.22925323  0.58775713  0.34070442    -0.21200
C696        C  0.24914072  0.63154629  0.34115396    -0.09300
C697        C  0.23211136  0.65305982  0.32665038     0.29600
C698        C  0.19579200  0.63116388  0.31201426    -0.21200
C699        C  0.17601562  0.58752086  0.31137072    -0.09300
C700        C  0.19293340  0.56578287  0.32575818     0.29600
F701        F  0.17313989  0.52347953  0.32640629    -0.19800
H702        H  0.24154542  0.57075073  0.35215310     0.17900
H703        H  0.18285105  0.64831578  0.30127627     0.17900
F704        F  0.24961108  0.69533878  0.32763212    -0.19800
C705        C  0.34846220  0.77439486  0.41526351    -0.21200
C706        C  0.37173093  0.75629961  0.40411096    -0.09300
C707        C  0.41494383  0.77316043  0.40945075     0.29600
C708        C  0.43436378  0.80780360  0.42591544    -0.21200
C709        C  0.41093056  0.82628612  0.43668976    -0.09300
C710        C  0.36779080  0.80922881  0.43113884     0.29600
F711        F  0.34398761  0.82560103  0.44159635    -0.19800
H712        H  0.31499239  0.76141962  0.41152233     0.17900
H713        H  0.46772606  0.82058432  0.42992146     0.17900
F714        F  0.43794140  0.75576137  0.39916927    -0.19800
C715        C  0.20551240  0.58090204  0.43376797    -0.21200
C716        C  0.17124937  0.58932534  0.43011162    -0.09300
C717        C  0.17334500  0.61658191  0.40995778     0.29600
C718        C  0.20929943  0.63581556  0.39467384    -0.21200
C719        C  0.24359698  0.62790022  0.39867373    -0.09300
C720        C  0.24144303  0.60014586  0.41827003     0.29600
F721        F  0.27455810  0.59255043  0.42279394    -0.19800
H722        H  0.20481724  0.55982521  0.44885985     0.17900
H723        H  0.21098644  0.65828431  0.38027060     0.17900
F724        F  0.14139345  0.62597143  0.40539508    -0.19800
C725        C  0.29755956  0.43633358  0.34718811    -0.21200
C726        C  0.27280083  0.39274760  0.34672718    -0.09300
C727        C  0.27855260  0.36966080  0.32683590     0.29600
C728        C  0.30807799  0.38999208  0.30752372    -0.21200
C729        C  0.33324622  0.43367968  0.30798755    -0.09300
C730        C  0.32798320  0.45666537  0.32828441     0.29600
F731        F  0.35199715  0.49867192  0.32994735    -0.19800
H732        H  0.29239677  0.45488666  0.36178886     0.17900
H733        H  0.31167170  0.37120145  0.29241462     0.17900
F734        F  0.25500464  0.32752547  0.32584287    -0.19800
C735        C  0.34846520  0.40669748  0.41395679    -0.21200
C736        C  0.36000300  0.44470289  0.42699091    -0.09300
C737        C  0.33077072  0.46044945  0.42828723     0.29600
C738        C  0.29099540  0.43840296  0.41710902    -0.21200
C739        C  0.27962862  0.40058027  0.40411865    -0.09300
C740        C  0.30871804  0.38486225  0.40258364     0.29600
F741        F  0.29850516  0.34822598  0.39033129    -0.19800
H742        H  0.37000580  0.39345096  0.41281697     0.17900
H743        H  0.26929425  0.45150265  0.41798395     0.17900
F744        F  0.34068313  0.49747102  0.43992934    -0.19800
C745        C  0.06987706  0.36888953  0.33311095    -0.21200
C746        C  0.09076237  0.40312053  0.31631961    -0.09300
C747        C  0.13515403  0.42250803  0.31523664     0.29600
C748        C  0.15767437  0.40904548  0.33106120    -0.21200
C749        C  0.13706995  0.37483365  0.34765788    -0.09300
C750        C  0.09286724  0.35441356  0.34842103     0.29600
F751        F  0.07210315  0.32026255  0.36353767    -0.19800
H752        H  0.03582809  0.35308241  0.33417030     0.17900
H753        H  0.19177857  0.42566557  0.33034273     0.17900
F754        F  0.15739543  0.45510726  0.29917895    -0.19800
C755        C  0.07858584  0.36861631  0.43197862    -0.21200
C756        C  0.09105519  0.41161790  0.43231032    -0.09300
C757        C  0.12666328  0.43918538  0.41831220     0.29600
C758        C  0.14988384  0.42408055  0.40448625    -0.21200
C759        C  0.13812922  0.38138648  0.40451540    -0.09300
C760        C  0.10240609  0.35350154  0.41831691     0.29600
F761        F  0.09110032  0.31210866  0.41880902    -0.19800
H762        H  0.05135932  0.34712925  0.44291157     0.17900
H763        H  0.17756529  0.44578562  0.39396830     0.17900
F764        F  0.13884370  0.48077341  0.41794123    -0.19800
C765        C  0.19832471  0.56378175  0.06930683    -0.21200
C766        C  0.17758576  0.58689259  0.06136079    -0.09300
C767        C  0.19468542  0.62874081  0.06980659     0.29600
C768        C  0.23109402  0.64659531  0.08554346    -0.21200
C769        C  0.25113121  0.62322186  0.09402028    -0.09300
C770        C  0.23419608  0.58144319  0.08560160     0.29600
F771        F  0.25221526  0.55751015  0.09326335    -0.19800
H772        H  0.18613347  0.53153705  0.06335560     0.17900
H773        H  0.24351292  0.67890283  0.09129270     0.17900
F774        F  0.17679584  0.65288806  0.06230026    -0.19800
C775        C  0.18282412  0.61562814  0.16938020    -0.21200
C776        C  0.17609148  0.58181680  0.18577210    -0.09300
C777        C  0.20764475  0.56871124  0.18623095     0.29600
C778        C  0.24408021  0.58854164  0.17070870    -0.21200
C779        C  0.25015194  0.62168467  0.15406041    -0.09300
C780        C  0.21925799  0.63539295  0.15394904     0.29600
F781        F  0.22496230  0.66902730  0.13964858    -0.19800
H782        H  0.15991522  0.62724212  0.16862063     0.17900
H783        H  0.26751156  0.57757386  0.17145849     0.17900
F784        F  0.20304865  0.53609765  0.20125299    -0.19800
C785        C  0.42396326  0.63190420  0.10306936    -0.21200
C786        C  0.38332841  0.62524999  0.09588298    -0.09300
C787        C  0.36666127  0.60391117  0.07249184     0.29600
C788        C  0.38966339  0.58954851  0.05705577    -0.21200
C789        C  0.42996374  0.59552153  0.06442144    -0.09300
C790        C  0.44679817  0.61707962  0.08781432     0.29600
F791        F  0.48581770  0.62475453  0.09580178    -0.19800
H792        H  0.43860760  0.64935867  0.12040053     0.17900
H793        H  0.37536135  0.57289054  0.03941627     0.17900
F794        F  0.32749772  0.59583094  0.06469566    -0.19800
C795        C  0.35776602  0.57366549  0.15267438    -0.21200
C796        C  0.37410057  0.61721734  0.15562106    -0.09300
C797        C  0.40621725  0.63697420  0.17414858     0.29600
C798        C  0.41973131  0.61372418  0.19009168    -0.21200
C799        C  0.40322348  0.57017720  0.18731926    -0.09300
C800        C  0.37253088  0.55057810  0.16790416     0.29600
F801        F  0.35639031  0.50891548  0.16379974    -0.19800
H802        H  0.33360923  0.55746148  0.13832339     0.17900
H803        H  0.44469095  0.63018726  0.20394000     0.17900
F804        F  0.42704077  0.67912316  0.17553289    -0.19800
C805        C  0.42346007  0.76885455  0.09320244    -0.21200
C806        C  0.37915443  0.74725192  0.09442385    -0.09300
C807        C  0.35625819  0.76216218  0.07929050     0.29600
C808        C  0.37713899  0.79853586  0.06423416    -0.21200
C809        C  0.42137450  0.82017418  0.06292002    -0.09300
C810        C  0.44439959  0.80460895  0.07743707     0.29600
F811        F  0.48712863  0.82496458  0.07724585    -0.19800
H812        H  0.44186882  0.75805761  0.10459619     0.17900
H813        H  0.35859481  0.80999974  0.05355794     0.17900
F814        F  0.31360146  0.74293665  0.08017405    -0.19800
C815        C  0.37013479  0.78611812  0.14547017    -0.21200
C816        C  0.37242946  0.75023610  0.15453636    -0.09300
C817        C  0.39028056  0.75344951  0.17934448     0.29600
C818        C  0.40763241  0.79128117  0.19326612    -0.21200
C819        C  0.40734350  0.82756764  0.18350803    -0.09300
C820        C  0.38776575  0.82414705  0.15932944     0.29600
F821        F  0.38603105  0.85765502  0.14873089    -0.19800
H822        H  0.35395798  0.78496801  0.12769164     0.17900
H823        H  0.42137558  0.79196692  0.21202032     0.17900
F824        F  0.39143089  0.72028500  0.19058428    -0.19800
C825        C  0.33534653  0.66459244  0.60086778     0.45500
H826        H  0.33604327  0.66486397  0.57943111    -0.03500
C827        C  0.33404468  0.66442176  0.65105808     0.45600
H828        H  0.33248224  0.66345384  0.67245205    -0.03500
C829        C  0.35836413  0.64125173  0.61303687    -0.17200
C830        C  0.35711255  0.70921144  0.61256834    -0.17000
C831        C  0.28996863  0.64334774  0.61210381    -0.17300
C832        C  0.35718636  0.64066778  0.63978129    -0.17300
C833        C  0.35584782  0.70970587  0.63939568    -0.16900
C834        C  0.28943616  0.64276643  0.63877709    -0.17200
C835        C  0.16296486  0.36534640  0.89061420     0.02300
C836        C  0.16097246  0.35774893  0.86375670     0.02300
C837        C  0.19439784  0.35443970  0.85203569    -0.18200
C838        C  0.23337596  0.37029585  0.86453832     0.02300
C839        C  0.23594490  0.37801562  0.89139058     0.02300
C840        C  0.19935402  0.37222720  0.90448349    -0.18200
H841        H  0.20125528  0.37966777  0.92489433     0.04400
H842        H  0.19326798  0.34979352  0.83127041     0.04400
C843        C  0.28758213  0.65801085  0.85752163     0.02300
C844        C  0.28502864  0.65307125  0.88462951     0.02300
C845        C  0.31847807  0.68091874  0.89982683    -0.18200
C846        C  0.35097538  0.71699952  0.88894565     0.02300
C847        C  0.35386405  0.72161603  0.86174598     0.02300
C848        C  0.32330984  0.69050241  0.84634003    -0.18200
H849        H  0.32419374  0.69483519  0.82555572     0.04400
H850        H  0.31561756  0.67829315  0.92070365     0.04400
C851        C  0.76875893  0.59391877  0.61954576     0.02300
C852        C  0.77635484  0.59426718  0.64628524     0.02300
C853        C  0.81686572  0.60522347  0.65518928    -0.18200
C854        C  0.84806217  0.60832122  0.63792077     0.02300
C855        C  0.84100685  0.60848473  0.61104401     0.02300
C856        C  0.80245393  0.60532501  0.60241013    -0.18200
H857        H  0.79655920  0.60530586  0.58185203     0.04400
H858        H  0.82179178  0.60340770  0.67576479     0.04400
Zr859      Zr  0.93109706  0.49048824  0.50010383     2.17500
O860        O  0.89296273  0.52749376  0.98143527    -0.51300
O861        O  0.88022612  0.44583764  0.53181984    -0.74500
O862        O  0.87584779  0.44773696  0.96813512    -0.81300
O863        O  0.98148840  0.57351829  0.55259124    -0.83000
O864        O  0.90099971  0.40996646  0.94573810    -0.78600
O865        O  0.92447625  0.54153572  0.52628972    -0.90300
O866        O  0.90697944  0.40711978  0.55159520    -0.76200
O867        O  0.93732953  0.42925847  0.99837632    -0.85700
O868        O  0.96989815  0.49252587  0.53814551    -0.85400
O869        O  0.96677052  0.49555253  0.95900878    -0.72200
O870        O  0.99614958  0.55447346  0.49864269    -0.84300
Zr871      Zr  0.08111025  0.49895155  0.99472467     2.26400
Zr872      Zr  0.97459617  0.43331461  0.95949729     2.06300
Zr873      Zr  0.03533707  0.55562125  0.53668409     2.10000
Zr874      Zr  0.97888081  0.43166673  0.53670714     1.78800
O875        O  0.06592209  0.63144426  0.53569673    -0.93100
O876        O  0.94761481  0.35645374  0.53035337    -0.40900
O877        O  0.04489516  0.49443935  0.53577837    -0.77500
O878        O  0.01534022  0.43514533  0.99695095    -0.96200
O879        O  0.04073312  0.49553904  0.95725841    -0.89500
O880        O  0.07364757  0.56194409  0.49775054    -0.92400
C881        C  0.87797547  0.41797047  0.54799379     1.01400
C882        C  0.94407518  0.56521059  0.54530568     1.14300
C883        C  0.87189699  0.42032129  0.95101182     1.05100
O884        O  0.94252342  0.35777274  0.96427260    -0.94500
O885        O  0.02641822  0.41423657  0.94248858    -0.90300
O886        O  0.08947647  0.45602689  0.96176231    -0.83400
C887        C  0.06616057  0.42775407  0.94564133     1.11700
O888        O  0.99250532  0.59197389  0.94355981    -0.96500
Zr889      Zr  0.03341871  0.55719147  0.95745515     1.88900
O890        O  0.13410564  0.54603490  0.96476003    -0.73200
O891        O  0.97188808  0.43015384  0.91239592    -0.52400
O892        O  0.02032387  0.54249344  0.91140602    -0.97100
O893        O  0.07367907  0.63311581  0.95763982    -0.54300
O894        O  0.10164172  0.57351883  0.93928808    -0.73700
C895        C  0.13336217  0.56790425  0.94536357     0.98700
O896        O  0.12223187  0.46689667  0.51416062    -0.62500
O897        O  0.03747371  0.55325070  0.58372721    -0.57300
O898        O  0.13564070  0.54264988  0.52897679    -0.94000
O899        O  0.10792064  0.57742877  0.55218750    -0.92400
O900        O  0.98441410  0.44132493  0.58340083    -0.92800
O901        O  0.01847733  0.39884661  0.55552761    -0.91500
C902        C  0.13784843  0.56812360  0.54704282     1.17500
H903        H  0.95466134  0.49218704  0.55357998     0.33500
H904        H  0.02084753  0.41141070  0.99658611     0.44300
H905        H  0.10055383  0.58678624  0.49801467     0.37800
H906        H  0.94987401  0.49551441  0.94444297     0.34300
H907        H  0.92903433  0.34422740  0.54548960     0.26100
H908        H  0.94997836  0.40151118  0.90823365     0.32000
H909        H  0.04336961  0.56660603  0.90263517     0.38000
H910        H  0.96146499  0.41530945  0.59054787     0.32400
H911        H  0.03739018  0.57926673  0.58959929     0.31300
H912        H  0.09554665  0.64127415  0.53039555     0.33000
H913        H  0.08417025  0.64061308  0.93972542     0.31900
H914        H  0.04670252  0.42226321  0.55912932     0.35900
H915        H  0.11645999  0.46471126  0.53295412     0.28700
H916        H  0.86282480  0.50857440  0.98483384     0.32900
H917        H  0.99917860  0.59876735  0.92506456     0.35800
H918        H  0.00954936  0.53069278  0.58883844     0.28400
H919        H  0.10738040  0.43762118  0.50808928     0.41200
H920        H  0.94544227  0.34745540  0.94706625     0.31300
H921        H  0.92804123  0.35061641  0.51562198     0.38900
H922        H  0.09917617  0.63948157  0.96800146     0.30800
H923        H  0.95948214  0.44841591  0.90712948     0.30800
H924        H  0.89601099  0.52718134  0.96243412     0.31100
Zr925      Zr  0.08115247  0.49048717  0.75277243     2.17500
O926        O  0.12161522  0.45632579  0.73738267    -0.51300
O927        O  0.13414988  0.53736809  0.78253239    -0.74500
O928        O  0.13477063  0.53437540  0.72083049    -0.81300
O929        O  0.02877562  0.40837250  0.80688412    -0.83000
O930        O  0.10622684  0.56718295  0.69661746    -0.78600
O931        O  0.08764481  0.44248269  0.78242208    -0.90300
O932        O  0.10998220  0.58009784  0.79948794    -0.76200
O933        O  0.07452566  0.55257971  0.74938129    -0.85700
O934        O  0.04434939  0.49276963  0.79073097    -0.85400
O935        O  0.04178907  0.48093026  0.71373259    -0.72200
O936        O  0.01495370  0.42765930  0.75367190    -0.84300
Zr937      Zr  0.93058991  0.48410717  0.74947766     2.26400
Zr938      Zr  0.03383926  0.54304093  0.71123360     2.06300
Zr939      Zr  0.97778629  0.43064660  0.79145267     2.10000
Zr940      Zr  0.03715187  0.55445558  0.78684943     1.78800
O941        O  0.94453965  0.35473284  0.78891321    -0.93100
O942        O  0.06882793  0.62920142  0.77838868    -0.40900
O943        O  0.97021341  0.49287120  0.78832834    -0.77500
O944        O  0.99661297  0.54710732  0.74869354    -0.96200
O945        O  0.96754769  0.48131007  0.71196403    -0.89500
O946        O  0.93744188  0.42188339  0.75313420    -0.92400
C947        C  0.13813973  0.56795419  0.79677561     1.01400
C948        C  0.06669672  0.41713907  0.80052079     1.14300
C949        C  0.13688359  0.55957737  0.70251468     1.05100
O950        O  0.06452098  0.61887088  0.71221255    -0.94500
O951        O  0.98222884  0.56148905  0.69368805    -0.90300
O952        O  0.92066297  0.52548118  0.71578923    -0.83400
C953        C  0.94334673  0.55067947  0.69800210     1.11700
O954        O  0.00963237  0.37790300  0.70481509    -0.96500
Zr955      Zr  0.97446553  0.41959985  0.71544265     1.88900
O956        O  0.87705730  0.43773584  0.71978254    -0.73200
O957        O  0.03314635  0.53663885  0.66429098    -0.52400
O958        O  0.98825385  0.42435779  0.66918286    -0.97100
O959        O  0.93111602  0.34444946  0.72093104    -0.54300
O960        O  0.90715594  0.40573538  0.69630185    -0.73700
C961        C  0.87687308  0.41435623  0.70109380     0.98700
O962        O  0.89603155  0.52246221  0.76761691    -0.62500
O963        O  0.97809231  0.43532559  0.83844764    -0.57300
O964        O  0.87727197  0.44272879  0.78181099    -0.94000
O965        O  0.90642409  0.41229021  0.80773485    -0.92400
O966        O  0.03757463  0.54904862  0.83371856    -0.92800
O967        O  0.00104544  0.59075296  0.80564728    -0.91500
C968        C  0.87566303  0.41973383  0.80129359     1.17500
H969        H  0.06007913  0.49404607  0.80616881     0.33500
H970        H  0.99150086  0.57101033  0.74724759     0.44300
H971        H  0.91021424  0.39762448  0.75433763     0.37800
H972        H  0.05764372  0.47918581  0.69912770     0.34300
H973        H  0.08236475  0.64252559  0.79490627     0.26100
H974        H  0.04563542  0.56571364  0.65782102     0.32000
H975        H  0.96741604  0.39700347  0.66222069     0.38000
H976        H  0.00789565  0.53040999  0.83840539     0.32400
H977        H  0.96710178  0.40616003  0.84452867     0.31300
H978        H  0.91743759  0.34497597  0.79813718     0.33000
H979        H  0.92429409  0.33327715  0.70312265     0.31900
H980        H  0.97087727  0.57005805  0.80532374     0.35900
H981        H  0.90062379  0.52260521  0.78649401     0.28700
H982        H  0.15138500  0.47623080  0.74109652     0.32900
H983        H  0.03869605  0.39857125  0.70013844     0.35800
H984        H  0.00819452  0.44904863  0.84345473     0.28400
H985        H  0.91389061  0.55182326  0.76234808     0.41200
H986        H  0.06176894  0.62697588  0.69430886     0.31300
H987        H  0.09267579  0.63491932  0.76665292     0.38900
H988        H  0.90395237  0.34082122  0.72792926     0.30800
H989        H  0.05426239  0.52711157  0.66016597     0.30800
H990        H  0.11922418  0.45600121  0.71831515     0.31100
C991        C  0.72748789  0.33397448  0.60951287     0.02300
C992        C  0.72831994  0.33890889  0.63668713     0.02300
C993        C  0.69348633  0.31151946  0.65129374    -0.18200
C994        C  0.66139439  0.27565731  0.63999457     0.02300
C995        C  0.66053826  0.27086379  0.61290671     0.02300
C996        C  0.69204967  0.30171161  0.59787085    -0.18200
H997        H  0.69226146  0.29698421  0.57717905     0.04400
H998        H  0.69509575  0.31380510  0.67220978     0.04400
C999        C  0.40663845  0.17024303  0.64249611     0.02300
C1000       C  0.41116430  0.16266820  0.61618187     0.02300
C1001       C  0.42384787  0.19509463  0.59823251    -0.18200
C1002       C  0.43515462  0.23573156  0.60603108     0.02300
C1003       C  0.43011701  0.24363529  0.63208652     0.02300
C1004       C  0.41374719  0.21043916  0.64971108    -0.18200
H1005       H  0.40987434  0.21687465  0.66970183     0.04400
H1006       H  0.42900387  0.18939704  0.57828565     0.04400
C1007       C  0.62151471  0.83675627  0.88065285     0.02300
C1008       C  0.62095406  0.83050110  0.85361502     0.02300
C1009       C  0.61541467  0.79148019  0.84462705    -0.18200
C1010       C  0.60192215  0.75716204  0.86138209     0.02300
C1011       C  0.60253861  0.76401318  0.88820287     0.02300
C1012       C  0.61597343  0.80440266  0.89747190    -0.18200
H1013       H  0.61492464  0.80903956  0.91813540     0.04400
H1014       H  0.61642037  0.78625806  0.82409133     0.04400
Zr1015     Zr  0.50153640  0.07085687  0.74983215     2.17500
O1016       O  0.47518603  0.11935071  0.76289820    -0.51300
O1017       O  0.54256738  0.12334730  0.71756406    -0.74500
O1018       O  0.54407251  0.12066368  0.78374553    -0.81300
O1019       O  0.41795543  0.02053174  0.69823444    -0.83000
O1020       O  0.58736071  0.09788708  0.80201699    -0.78600
O1021       O  0.43560945  0.06361521  0.73276187    -0.90300
O1022       O  0.58415317  0.10057197  0.69716630    -0.76200
O1023       O  0.56529383  0.06576409  0.74833804    -0.85700
O1024       O  0.49937613  0.03504247  0.71052034    -0.85400
O1025       O  0.50047953  0.03293708  0.78821413    -0.72200
O1026       O  0.43937390  0.00414518  0.75094627    -0.84300
Zr1027     Zr  0.49909065  0.92387821  0.74799852     2.26400
Zr1028     Zr  0.56409237  0.02633489  0.78573933     2.06300
Zr1029     Zr  0.43789630  0.96787425  0.71168878     2.10000
Zr1030     Zr  0.56248793  0.02922874  0.70953901     1.78800
O1031       O  0.36139806  0.93363202  0.71468318    -0.93100
O1032       O  0.63850664  0.06335309  0.71574237    -0.40900
O1033       O  0.50142539  0.96212809  0.70988299    -0.77500
O1034       O  0.56221972  0.98978144  0.74653337    -0.96200
O1035       O  0.50221850  0.96008019  0.78708012    -0.89500
O1036       O  0.43555561  0.92922309  0.74959209    -0.92400
C1037       C  0.57174461  0.12795188  0.70154978     1.01400
C1038       C  0.42002271  0.05252299  0.71010005     1.14300
C1039       C  0.57390481  0.12518573  0.79941113     1.05100
O1040       O  0.64002222  0.06001991  0.77941752    -0.94500
O1041       O  0.58692850  0.97516543  0.79972988    -0.90300
O1042       O  0.55151546  0.91839923  0.77411979    -0.83400
C1043       C  0.57787270  0.93803766  0.79211091     1.11700
O1044       O  0.39787410  0.00060319  0.80129512    -0.96500
Zr1045     Zr  0.43922834  0.96596657  0.78852720     1.88900
O1046       O  0.46009154  0.87132276  0.78049859    -0.73200
O1047       O  0.56513979  0.02434716  0.83281452    -0.52400
O1048       O  0.44733418  0.97712699  0.83503406    -0.97100
O1049       O  0.36348758  0.92030040  0.78938379    -0.54300
O1050       O  0.43015085  0.90064386  0.80637817    -0.73700
C1051       C  0.43860404  0.87095636  0.80043152     0.98700
O1052       O  0.53099311  0.88666953  0.72505066    -0.62500
O1053       O  0.44008677  0.97045177  0.66463991    -0.57300
O1054       O  0.45137673  0.86987789  0.71808048    -0.94000
O1055       O  0.41722852  0.89736051  0.69405284    -0.92400
O1056       O  0.55418546  0.03056930  0.66287065    -0.92800
O1057       O  0.59322440  0.99068780  0.68717416    -0.91500
C1058       C  0.42578058  0.86730565  0.69979440     1.17500
H1059       H  0.49819199  0.05059195  0.69563264     0.33500
H1060       H  0.58672431  0.98528341  0.74563528     0.44300
H1061       H  0.41130458  0.90195805  0.74944653     0.37800
H1062       H  0.50030417  0.04799723  0.80356904     0.34300
H1063       H  0.65016688  0.07704164  0.69898095     0.26100
H1064       H  0.59320141  0.04679237  0.83785097     0.32000
H1065       H  0.41912181  0.95848564  0.84216545     0.38000
H1066       H  0.58179725  0.05219131  0.65653249     0.32400
H1067       H  0.41070948  0.96205779  0.65930039     0.31300
H1068       H  0.35481967  0.95377355  0.72402532     0.33000
H1069       H  0.35714816  0.91187782  0.80772286     0.31900
H1070       H  0.56898808  0.96341426  0.68292104     0.35900
H1071       H  0.52683525  0.89025590  0.70647325     0.28700
H1072       H  0.49888970  0.14776439  0.76066430     0.32900
H1073       H  0.41897634  0.02920262  0.80620533     0.35800
H1074       H  0.45573950  0.00047286  0.66019682     0.28400
H1075       H  0.56173528  0.90369742  0.72753141     0.41200
H1076       H  0.65185662  0.06342286  0.79706444     0.31300
H1077       H  0.64424468  0.08676295  0.72768565     0.38900
H1078       H  0.35912605  0.89446120  0.78039739     0.30800
H1079       H  0.54511700  0.03450951  0.83842025     0.30800
H1080       H  0.47046660  0.11564345  0.78177822     0.31100
Zr1081     Zr  0.45412659  0.53155504  0.76600643     2.17500
O1082       O  0.42794179  0.58019648  0.77889518    -0.51300
O1083       O  0.39211566  0.49005266  0.79222717    -0.74500
O1084       O  0.42338195  0.55239212  0.72895931    -0.81300
O1085       O  0.53833329  0.56651826  0.82132330    -0.83000
O1086       O  0.42174791  0.51482368  0.69331406    -0.78600
O1087       O  0.49801223  0.58648161  0.79688605    -0.90300
O1088       O  0.36989057  0.42795315  0.77347606    -0.76200
O1089       O  0.42210125  0.46580841  0.74410435    -0.85700
O1090       O  0.46204467  0.48245729  0.79428038    -0.85400
O1091       O  0.49221292  0.54228137  0.72603443    -0.72200
O1092       O  0.52747928  0.55442065  0.77269093    -0.84300
Zr1093     Zr  0.54295186  0.45205319  0.73895670     2.26400
Zr1094     Zr  0.46055482  0.47573510  0.70474200     2.06300
Zr1095     Zr  0.53581800  0.50550652  0.80022751     2.10000
Zr1096     Zr  0.43105888  0.41760846  0.77181063     1.78800
O1097       O  0.60635760  0.54774878  0.81742006    -0.93100
O1098       O  0.37758669  0.35617770  0.74992493    -0.40900
O1099       O  0.50445166  0.44008082  0.77844246    -0.77500
O1100       O  0.46803760  0.42567228  0.73247312    -0.96200
O1101       O  0.53491210  0.50081481  0.71109211    -0.89500
O1102       O  0.57452974  0.51712814  0.76094230    -0.92400
C1103       C  0.36577490  0.45128577  0.79035150     1.01400
C1104       C  0.52447585  0.59243053  0.81540081     1.14300
C1105       C  0.41439433  0.54239316  0.70488642     1.05100
O1106       O  0.39127839  0.42576272  0.68899057    -0.94500
O1107       O  0.46811271  0.42308030  0.67906027    -0.90300
O1108       O  0.51564513  0.40920110  0.70038180    -0.83400
C1109       C  0.48921445  0.40268572  0.68196843     1.11700
O1110       O  0.56961207  0.63491315  0.73173521    -0.96500
Zr1111     Zr  0.56515224  0.56557666  0.73373417     1.88900
O1112       O  0.61165116  0.49397505  0.71888684    -0.73200
O1113       O  0.48658051  0.50573450  0.66231176    -0.52400
O1114       O  0.57737246  0.59437877  0.69012159    -0.97100
O1115       O  0.62125316  0.61620361  0.76083618    -0.54300
O1116       O  0.62510320  0.56168595  0.71790734    -0.73700
C1117       C  0.63501340  0.53273210  0.71359818     0.98700
O1118       O  0.56982951  0.40154131  0.73504164    -0.62500
O1119       O  0.50546492  0.47806137  0.84238514    -0.57300
O1120       O  0.56804504  0.42528441  0.77563297    -0.94000
O1121       O  0.57001118  0.46237817  0.81139068    -0.92400
O1122       O  0.41239576  0.39950131  0.81699298    -0.92800
O1123       O  0.42673718  0.35012318  0.78260349    -0.91500
C1124       C  0.57710082  0.43480654  0.79969184     1.17500
H1125       H  0.44919147  0.48056266  0.81093070     0.33500
H1126       H  0.45469491  0.39788626  0.72530221     0.44300
H1127       H  0.60382781  0.52583221  0.76469471     0.37800
H1128       H  0.49167711  0.56388701  0.71534072     0.34300
H1129       H  0.35214870  0.34674425  0.76085227     0.26100
H1130       H  0.46216546  0.49121591  0.65061542     0.32000
H1131       H  0.57657396  0.57184079  0.67892653     0.38000
H1132       H  0.38321839  0.37646645  0.81656498     0.32400
H1133       H  0.50155764  0.44909958  0.84257362     0.31300
H1134       H  0.60323567  0.54383683  0.83637350     0.33000
H1135       H  0.64022633  0.60377657  0.76428113     0.31900
H1136       H  0.45312633  0.35149348  0.77575152     0.35900
H1137       H  0.54473075  0.37397880  0.73311653     0.28700
H1138       H  0.39815591  0.56730483  0.77324106     0.32900
H1139       H  0.59852042  0.65382794  0.72572709     0.35800
H1140       H  0.52879695  0.49330605  0.85466502     0.28400
H1141       H  0.58435797  0.40729990  0.71814234     0.41200
H1142       H  0.37146177  0.42468124  0.70262628     0.31300
H1143       H  0.37074724  0.36721942  0.73410025     0.38900
H1144       H  0.60772506  0.61506641  0.77768898     0.30800
H1145       H  0.49057162  0.53468348  0.66334087     0.30800
H1146       H  0.44267832  0.60497533  0.76765092     0.31100
Zr1147     Zr  0.51042300  0.91869078  0.99774778     2.17500
O1148       O  0.54706598  0.88562316  0.51492334    -0.51300
O1149       O  0.46307496  0.86423268  0.96947037    -0.74500
O1150       O  0.46425673  0.86418876  0.53059118    -0.81300
O1151       O  0.58395345  0.97363144  0.94024229    -0.83000
O1152       O  0.43018485  0.88986893  0.55627737    -0.78600
O1153       O  0.55358127  0.91290953  0.96343649    -0.90300
O1154       O  0.42097056  0.88812667  0.95064240    -0.76200
O1155       O  0.44212204  0.92293047  0.50366816    -0.85700
O1156       O  0.50259772  0.95440859  0.96078547    -0.85400
O1157       O  0.51521169  0.95655449  0.53840353    -0.72200
O1158       O  0.57177806  0.98611658  0.99562626    -0.84300
Zr1159     Zr  0.50649116  0.06674729  0.50517624     2.26400
Zr1160     Zr  0.45135085  0.96167331  0.54240966     2.06300
Zr1161     Zr  0.56254351  0.02198818  0.95892797     2.10000
Zr1162     Zr  0.43866391  0.95744472  0.96653408     1.78800
O1163       O  0.63911951  0.05809455  0.95620752    -0.93100
O1164       O  0.36583204  0.91443218  0.97984980    -0.40900
O1165       O  0.49825749  0.02591065  0.96389269    -0.77500
O1166       O  0.44426243  0.99958401  0.50603724    -0.96200
O1167       O  0.51167064  0.02902918  0.54167399    -0.89500
O1168       O  0.57282956  0.06074385  0.99768802    -0.92400
C1169       C  0.43363866  0.86059728  0.95405760     1.01400
C1170       C  0.57607939  0.93587074  0.94476133     1.14300
C1171       C  0.43928777  0.86081063  0.54944189     1.05100
O1172       O  0.37473728  0.92841099  0.54383371    -0.94500
O1173       O  0.43341287  0.01086900  0.56310394    -0.90300
O1174       O  0.46356263  0.07152738  0.53985582    -0.83400
C1175       C  0.44162886  0.04871585  0.55871097     1.11700
O1176       O  0.61904313  0.99297583  0.55081595    -0.96500
Zr1177     Zr  0.57503450  0.02460686  0.53735059     1.88900
O1178       O  0.55326663  0.11886436  0.53525628    -0.73200
O1179       O  0.46187700  0.96135252  0.58893418    -0.52400
O1180       O  0.56937578  0.01180945  0.58379910    -0.97100
O1181       O  0.64966358  0.06808332  0.52839387    -0.54300
O1182       O  0.58886250  0.09066626  0.55706908    -0.73700
C1183       C  0.57862859  0.11982862  0.55306702     0.98700
O1184       O  0.46918878  0.09937343  0.98644791    -0.62500
O1185       O  0.55021220  0.02095869  0.91251756    -0.57300
O1186       O  0.54917763  0.12002874  0.97039912    -0.94000
O1187       O  0.57986198  0.09246117  0.94363308    -0.92400
O1188       O  0.43538099  0.96060028  0.91961728    -0.92800
O1189       O  0.39414292  0.98729511  0.95131011    -0.91500
C1190       C  0.57238706  0.12258639  0.95063616     1.17500
H1191       H  0.50093605  0.93954005  0.94499985     0.33500
H1192       H  0.41952161  0.00344412  0.50819073     0.44300
H1193       H  0.59669930  0.08817858  0.99619320     0.37800
H1194       H  0.51815435  0.94079113  0.55263601     0.34300
H1195       H  0.35033452  0.90265652  0.96355660     0.26100
H1196       H  0.43374226  0.94237364  0.59600652     0.32000
H1197       H  0.55303856  0.02562771  0.59035087     0.38000
H1198       H  0.45817693  0.98853915  0.91497621     0.32400
H1199       H  0.57846944  0.03164051  0.90461421     0.31300
H1200       H  0.64541486  0.07434605  0.93995494     0.33000
H1201       H  0.65398482  0.09717820  0.52863165     0.31900
H1202       H  0.41374889  0.01725992  0.94864875     0.35900
H1203       H  0.46641437  0.09337395  0.96767870     0.28700
H1204       H  0.52781882  0.85525157  0.51425616     0.32900
H1205       H  0.63637939  0.01028810  0.56532976     0.35800
H1206       H  0.53548380  0.99104526  0.90772658     0.28400
H1207       H  0.44027772  0.08262805  0.99317537     0.41200
H1208       H  0.36776662  0.92368629  0.56244678     0.31300
H1209       H  0.36567553  0.89016360  0.98883019     0.38900
H1210       H  0.65301479  0.06260776  0.51003672     0.30800
H1211       H  0.47865641  0.94627961  0.59146047     0.30800
H1212       H  0.55105110  0.89246672  0.53357626     0.31100
Zr1213     Zr  0.46211702  0.53896587  0.98676887     2.17500
O1214       O  0.40484288  0.55569598  0.47784576    -0.51300
O1215       O  0.49597799  0.60333374  0.96148216    -0.74500
O1216       O  0.43997355  0.56673838  0.52528863    -0.81300
O1217       O  0.42868804  0.45372108  0.93418207    -0.83000
O1218       O  0.48165984  0.57198078  0.55958812    -0.78600
O1219       O  0.40651359  0.49356702  0.95690881    -0.90300
O1220       O  0.55890645  0.63118957  0.98027128    -0.76200
O1221       O  0.52908400  0.57708444  0.50787850    -0.85700
O1222       O  0.51309540  0.53959660  0.95610138    -0.85400
O1223       O  0.45804214  0.50158734  0.52696756    -0.72200
O1224       O  0.44838380  0.46819058  0.97983826    -0.84300
Zr1225     Zr  0.56110582  0.46830903  0.51043728     2.26400
Zr1226     Zr  0.52594669  0.53977602  0.54660259     2.06300
Zr1227     Zr  0.49894572  0.46860884  0.94966994     2.10000
Zr1228     Zr  0.57977067  0.57751327  0.97701741     1.78800
O1229       O  0.46217886  0.41069585  0.91993629    -0.93100
O1230       O  0.64133251  0.63285947  0.99795864    -0.40900
O1231       O  0.56624722  0.50733819  0.96934782    -0.77500
O1232       O  0.57853706  0.54033443  0.51724662    -0.96200
O1233       O  0.50962526  0.46824172  0.53979683    -0.89500
O1234       O  0.49809192  0.43194662  0.98840196    -0.92400
C1235       C  0.53344399  0.63322867  0.96398784     1.01400
C1236       C  0.40082275  0.46552007  0.93982508     1.14300
C1237       C  0.45160044  0.57676465  0.54899051     1.05100
O1238       O  0.57229408  0.60968862  0.56246634    -0.94500
O1239       O  0.58352930  0.53893914  0.57095122    -0.90300
O1240       O  0.60442530  0.49716686  0.54915237    -0.83400
C1241       C  0.60809568  0.52239699  0.56768095     1.11700
O1242       O  0.37015125  0.41615371  0.52296835    -0.96500
Zr1243     Zr  0.44354108  0.43116251  0.51863393     1.88900
O1244       O  0.53085841  0.40211396  0.53349487    -0.73200
O1245       O  0.49734132  0.51085727  0.58882492    -0.52400
O1246       O  0.41577701  0.41265637  0.56236238    -0.97100
O1247       O  0.39783017  0.37221050  0.49154506    -0.54300
O1248       O  0.46011093  0.37838696  0.53359940    -0.73700
C1249       C  0.49302778  0.37468410  0.53860881     0.98700
O1250       O  0.63526336  0.47826698  0.00493827    -0.62500
O1251       O  0.53426854  0.50880026  0.91136861    -0.57300
O1252       O  0.58212404  0.43718351  0.97345608    -0.94000
O1253       O  0.53866216  0.43009721  0.93974968    -0.92400
O1254       O  0.59319137  0.60282979  0.93265999    -0.92800
O1255       O  0.64754401  0.58590805  0.96179977    -0.91500
C1256       C  0.56804858  0.42433720  0.95050705     1.17500
H1257       H  0.51159776  0.55204495  0.93986852     0.33500
H1258       H  0.60657901  0.55597961  0.52418604     0.44300
H1259       H  0.49338904  0.40397614  0.98456677     0.37800
H1260       H  0.43586136  0.49972727  0.53827596     0.34300
H1261       H  0.65082283  0.65710353  0.98617541     0.26100
H1262       H  0.50579278  0.53550522  0.60016332     0.32000
H1263       H  0.43967864  0.41463308  0.57293218     0.38000
H1264       H  0.61689477  0.63142859  0.93391839     0.32400
H1265       H  0.54380713  0.49088129  0.90197276     0.31300
H1266       H  0.47621579  0.42086248  0.90305711     0.33000
H1267       H  0.40655412  0.35036822  0.49485534     0.31900
H1268       H  0.65021238  0.56212468  0.96945520     0.35900
H1269       H  0.65492859  0.50686037  0.01076930     0.28700
H1270       H  0.41307900  0.58288504  0.98199532     0.32900
H1271       H  0.35440014  0.38604766  0.52718909     0.35800
H1272       H  0.51133773  0.50854085  0.90056430     0.28400
H1273       H  0.62896485  0.45030248  0.52308798     0.41200
H1274       H  0.56690800  0.62858444  0.55095418     0.31300
H1275       H  0.63004590  0.64081419  0.01321622     0.38900
H1276       H  0.40712875  0.38151076  0.47362939     0.30800
H1277       H  0.46647795  0.49940432  0.58686666     0.30800
H1278       H  0.38237722  0.54005172  0.49058263     0.31100
C1279       C  0.67216577  0.32209102  0.90041929     0.45500
H1280       H  0.67171127  0.32135002  0.92186491    -0.03500
C1281       C  0.67371654  0.32343891  0.85015703     0.45600
H1282       H  0.67449093  0.32367929  0.82871620    -0.03500
C1283       C  0.65030643  0.27776786  0.88838873    -0.17200
C1284       C  0.64947770  0.34578670  0.88855438    -0.17000
C1285       C  0.71744148  0.34364702  0.88911689    -0.17300
C1286       C  0.65144224  0.27849487  0.86170672    -0.17300
C1287       C  0.65035964  0.34679524  0.86172808    -0.16900
C1288       C  0.71848526  0.34458946  0.86243751    -0.17200
C1289       C  0.58695800  0.35803902  0.89913690    -0.21200
C1290       C  0.62774682  0.36422570  0.90522979    -0.09300
C1291       C  0.64749915  0.38812631  0.92732377     0.29600
C1292       C  0.62762714  0.40660573  0.94211827    -0.21200
C1293       C  0.58758586  0.40210874  0.93533134    -0.09300
C1294       C  0.56732845  0.37701611  0.91364817     0.29600
F1295       F  0.52828952  0.37036395  0.90645629    -0.19800
H1296       H  0.57025673  0.33867279  0.88282316     0.17900
H1297       H  0.64424286  0.42544540  0.95863273     0.17900
F1298       F  0.68669932  0.39490411  0.93423875    -0.19800
C1299       C  0.58140428  0.19513783  0.93858988    -0.21200
C1300       C  0.59237983  0.16268829  0.93484405    -0.09300
C1301       C  0.62330498  0.16935136  0.91582177     0.29600
C1302       C  0.64176677  0.20640444  0.90115680    -0.21200
C1303       C  0.63024981  0.23829590  0.90457613    -0.09300
C1304       C  0.60011453  0.23237530  0.92381739     0.29600
F1305       F  0.58810502  0.26233613  0.92806535    -0.19800
H1306       H  0.55807406  0.19168602  0.95294664     0.17900
H1307       H  0.66592254  0.21043075  0.88731559     0.17900
F1308       F  0.63666449  0.14041120  0.91151909    -0.19800
C1309       C  0.63959125  0.41029976  0.85161831    -0.21200
C1310       C  0.63262322  0.36972838  0.84509188    -0.09300
C1311       C  0.60836866  0.35139886  0.82274969     0.29600
C1312       C  0.59102009  0.37263878  0.80796095    -0.21200
C1313       C  0.59679898  0.41263705  0.81506610    -0.09300
C1314       C  0.62156579  0.43112389  0.83721741     0.29600
F1315       F  0.62909987  0.46987028  0.84484400    -0.19800
H1316       H  0.65899708  0.42604453  0.86815208     0.17900
H1317       H  0.57215319  0.35724270  0.79116759     0.17900
F1318       F  0.60012124  0.31226839  0.81557154    -0.19800
C1319       C  0.58842796  0.21969891  0.84033693    -0.21200
C1320       C  0.63194968  0.23983012  0.84520155    -0.09300
C1321       C  0.65628871  0.22187499  0.83511912     0.29600
C1322       C  0.63732076  0.18432158  0.82086867    -0.21200
C1323       C  0.59378164  0.16443054  0.81550136    -0.09300
C1324       C  0.56959365  0.18282210  0.82549102     0.29600
F1325       F  0.52736016  0.16442365  0.82161745    -0.19800
H1326       H  0.56891133  0.23258243  0.84813507     0.17900
H1327       H  0.65689389  0.17113146  0.81361933     0.17900
F1328       F  0.69836570  0.24015532  0.83963638    -0.19800
C1329       C  0.59711190  0.68608004  0.85626218    -0.21200
C1330       C  0.58202290  0.71450312  0.85026931    -0.09300
C1331       C  0.54616867  0.70149696  0.83450995     0.29600
C1332       C  0.52690383  0.66143967  0.82401600    -0.21200
C1333       C  0.54257255  0.63309456  0.82921605    -0.09300
C1334       C  0.57761183  0.64566693  0.84597156     0.29600
F1335       F  0.59393844  0.61956829  0.85196612    -0.19800
H1336       H  0.62422905  0.69534863  0.86878261     0.17900
H1337       H  0.49971883  0.65277407  0.81164373     0.17900
F1338       F  0.52867011  0.72703638  0.83008133    -0.19800
C1339       C  0.57643330  0.87035642  0.80083077    -0.21200
C1340       C  0.59583829  0.91355673  0.80544090    -0.09300
C1341       C  0.62858328  0.93037681  0.82378737     0.29600
C1342       C  0.63939976  0.90367491  0.83812515    -0.21200
C1343       C  0.61689675  0.85996146  0.83494184    -0.09300
C1344       C  0.58610684  0.84400463  0.81542558     0.29600
F1345       F  0.56226941  0.80249243  0.81154385    -0.19800
H1346       H  0.55126515  0.85587156  0.78683691     0.17900
H1347       H  0.66408567  0.91701189  0.85250126     0.17900
F1348       F  0.64943172  0.97208522  0.82829120    -0.19800
C1349       C  0.60946391  0.72902779  0.92752662    -0.21200
C1350       C  0.58428897  0.72986807  0.90716275    -0.09300
C1351       C  0.54108573  0.70148364  0.90693033     0.29600
C1352       C  0.52409683  0.67079712  0.92600200    -0.21200
C1353       C  0.54964259  0.66903855  0.94605752    -0.09300
C1354       C  0.59241154  0.69940055  0.94699690     0.29600
F1355       F  0.61823102  0.70041837  0.96647451    -0.19800
H1356       H  0.64245808  0.75176231  0.92843869     0.17900
H1357       H  0.49107610  0.64826203  0.92493505     0.15300
F1358       F  0.51518812  0.70404310  0.88867629    -0.19800
C1359       C  0.64375843  0.89777575  0.91007639    -0.21200
C1360       C  0.61443400  0.86993668  0.89240634    -0.09300
C1361       C  0.57408847  0.86707480  0.89063001     0.29600
C1362       C  0.56252351  0.89002038  0.90735248    -0.21200
C1363       C  0.59103213  0.91610034  0.92585716    -0.09300
C1364       C  0.63225230  0.92131724  0.92658284     0.29600
F1365       F  0.66044011  0.94747362  0.94400863    -0.19800
H1366       H  0.67465984  0.89957840  0.91191635     0.17900
H1367       H  0.53079090  0.88637579  0.90650175     0.17900
F1368       F  0.54484125  0.83951248  0.87420796    -0.19800
C1369       C  0.44732351  0.30026035  0.54680670    -0.21200
C1370       C  0.48507127  0.33633394  0.55219890    -0.09300
C1371       C  0.50908811  0.33724117  0.57382857     0.29600
C1372       C  0.49386203  0.30327215  0.59069241    -0.21200
C1373       C  0.45392324  0.26917621  0.58666069    -0.09300
C1374       C  0.43151956  0.26710586  0.56403401     0.29600
F1375       F  0.39306834  0.23431608  0.55946079    -0.19800
H1376       H  0.42845558  0.29905125  0.53013159     0.17900
H1377       H  0.51232270  0.30442385  0.60752154     0.17900
F1378       F  0.54507059  0.37211015  0.57989442    -0.19800
C1379       C  0.44551225  0.35236045  0.64734261    -0.21200
C1380       C  0.47919264  0.36604780  0.66508353    -0.09300
C1381       C  0.49885910  0.34058912  0.66936591     0.29600
C1382       C  0.48228846  0.30094675  0.65857112    -0.21200
C1383       C  0.44720041  0.28645285  0.64229598    -0.09300
C1384       C  0.42996749  0.31298487  0.63572677     0.29600
F1385       F  0.39733851  0.30021835  0.61884860    -0.19800
H1386       H  0.43009539  0.37132826  0.64322695     0.17900
H1387       H  0.49691723  0.28130903  0.66293039     0.17900
F1388       F  0.53333997  0.35309139  0.68465213    -0.19800
C1389       C  0.37473501  0.09661533  0.65992405    -0.21200
C1390       C  0.40213803  0.13956560  0.66297716    -0.09300
C1391       C  0.42967949  0.15275883  0.68430020     0.29600
C1392       C  0.43185427  0.12369278  0.70086545    -0.21200
C1393       C  0.40790448  0.08081997  0.69624468    -0.09300
C1394       C  0.37829732  0.06725806  0.67603535     0.29600
F1395       F  0.35409938  0.02593056  0.67128370    -0.19800
H1396       H  0.35239947  0.08569577  0.64410945     0.17900
H1397       H  0.45539998  0.13504433  0.71599309     0.17900
F1398       F  0.45768296  0.19354076  0.68789203    -0.19800
C1399       C  0.44490977  0.11680254  0.61332030    -0.21200
C1400       C  0.41110794  0.12440168  0.60678802    -0.09300
C1401       C  0.38332456  0.10147762  0.58689755     0.29600
C1402       C  0.39145138  0.07378997  0.57220712    -0.21200
C1403       C  0.42708416  0.06880055  0.57749831    -0.09300
C1404       C  0.45284692  0.08891325  0.59872842     0.29600
F1405       F  0.48778970  0.08450875  0.60372299    -0.19800
H1406       H  0.46699658  0.13494268  0.62828996     0.17900
H1407       H  0.37164328  0.05838567  0.55573170     0.17900
F1408       F  0.35067775  0.10880296  0.58031582    -0.19800
C1409       C  0.63731990  0.18455564  0.68389168    -0.21200
C1410       C  0.59366228  0.16747466  0.68722753    -0.09300
C1411       C  0.57194209  0.18713917  0.67564957     0.29600
C1412       C  0.59380894  0.22282256  0.66031249    -0.21200
C1413       C  0.63749080  0.23952838  0.65702765    -0.09300
C1414       C  0.65913930  0.22047979  0.66924519     0.29600
F1415       F  0.70139935  0.23601993  0.66628022    -0.19800
H1416       H  0.65462423  0.16990794  0.69265150     0.17900
H1417       H  0.57678758  0.23717305  0.65086356     0.17900
F1418       F  0.52960153  0.17086753  0.67823733    -0.19800
C1419       C  0.58398420  0.18809307  0.56805323    -0.21200
C1420       C  0.59726237  0.15709535  0.57009993    -0.09300
C1421       C  0.62894519  0.16273276  0.58819663     0.29600
C1422       C  0.64760665  0.19899717  0.60301602    -0.21200
C1423       C  0.63505941  0.23016854  0.60035964    -0.09300
C1424       C  0.60299441  0.22451492  0.58287809     0.29600
F1425       F  0.59116889  0.25482495  0.57953125    -0.19800
H1426       H  0.55953409  0.18469528  0.55451600     0.17900
H1427       H  0.67330353  0.20361463  0.61584812     0.17900
F1428       F  0.64331175  0.13420499  0.59097448    -0.19800
C1429       C  0.80732671  0.40840624  0.68644764    -0.21200
C1430       C  0.83958163  0.39670996  0.68368251    -0.09300
C1431       C  0.83580967  0.36832497  0.66396288     0.29600
C1432       C  0.80030063  0.35130768  0.64818803    -0.21200
C1433       C  0.76820020  0.36282399  0.65099837    -0.09300
C1434       C  0.77185840  0.39151391  0.67033807     0.29600
F1435       F  0.74061999  0.40219926  0.67409830    -0.19800
H1436       H  0.80925018  0.43032227  0.70127782     0.17900
H1437       H  0.79711649  0.32756782  0.63438907     0.17900
F1438       F  0.86574009  0.35586950  0.66019949    -0.19800
C1439       C  0.80218054  0.40999936  0.81190529    -0.21200
C1440       C  0.83555627  0.40055085  0.81719305    -0.09300
C1441       C  0.82959242  0.37232033  0.83759939     0.29600
C1442       C  0.79172179  0.35414424  0.85177139    -0.21200
C1443       C  0.75866528  0.36387265  0.84662610    -0.09300
C1444       C  0.76438912  0.39198394  0.82628583     0.29600
F1445       F  0.73374904  0.40275877  0.82053344    -0.19800
H1446       H  0.80525493  0.43158092  0.79654326     0.17900
H1447       H  0.78806225  0.33170274  0.86664426     0.17900
F1448       F  0.86013606  0.36168808  0.84385278    -0.19800
C1449       C  0.78460071  0.39947464  0.59027242    -0.21200
C1450       C  0.76575839  0.35606728  0.59349672    -0.09300
C1451       C  0.78426759  0.33331325  0.58196962     0.29600
C1452       C  0.82097973  0.35373902  0.56740978    -0.21200
C1453       C  0.83941292  0.39701132  0.56366057    -0.09300
C1454       C  0.82110499  0.41988077  0.57531849     0.29600
F1455       F  0.83935645  0.46203545  0.57301172    -0.19800
H1456       H  0.77104653  0.41744219  0.59934908     0.17900
H1457       H  0.83485385  0.33567641  0.55883549     0.17900
F1458       F  0.76753521  0.29142629  0.58557201    -0.19800
C1459       C  0.77207732  0.33837251  0.91765704    -0.21200
C1460       C  0.75600129  0.36315560  0.90596069    -0.09300
C1461       C  0.77753621  0.40661895  0.90989443     0.29600
C1462       C  0.81444084  0.42474693  0.92502590    -0.21200
C1463       C  0.83147781  0.40016969  0.93598629    -0.09300
C1464       C  0.80973960  0.35662356  0.93211625     0.29600
F1465       F  0.82451578  0.33162574  0.94272557    -0.19800
H1466       H  0.75594675  0.30483652  0.91498924     0.17900
H1467       H  0.83040031  0.45829350  0.92765759     0.17900
F1468       F  0.76288747  0.43157576  0.89905323    -0.19800
C1469       C  0.91388540  0.62443534  0.66241083    -0.21200
C1470       C  0.87851923  0.59585286  0.64865131    -0.09300
C1471       C  0.86645175  0.55299941  0.65003242     0.29600
C1472       C  0.88809246  0.53868550  0.66610080    -0.21200
C1473       C  0.92258264  0.56698646  0.68048731    -0.09300
C1474       C  0.93635621  0.61008379  0.67804316     0.29600
F1475       F  0.96967914  0.63784651  0.69199977    -0.19800
H1476       H  0.92278661  0.65743701  0.66192245     0.17900
H1477       H  0.87749199  0.50540048  0.66769992     0.17900
F1478       F  0.83171149  0.52485542  0.63729623    -0.19800
C1479       C  0.87543840  0.55923920  0.55849574    -0.21200
C1480       C  0.91954243  0.58090637  0.56046898    -0.09300
C1481       C  0.93806871  0.61429774  0.57800284     0.29600
C1482       C  0.91250305  0.62508136  0.59343144    -0.21200
C1483       C  0.86836121  0.60189961  0.59213808    -0.09300
C1484       C  0.85016104  0.56899282  0.57427184     0.29600
F1485       F  0.80787123  0.54418641  0.57306151    -0.19800
H1486       H  0.85998121  0.53294849  0.54551653     0.17900
H1487       H  0.92710813  0.65064257  0.60699354     0.17900
F1488       F  0.98053557  0.63605348  0.58048919    -0.19800
C1489       C  0.73957428  0.60330925  0.68411709    -0.21200
C1490       C  0.74207720  0.57710250  0.66518680    -0.09300
C1491       C  0.71346963  0.53428076  0.66537642     0.29600
C1492       C  0.67991137  0.51879698  0.68270847    -0.21200
C1493       C  0.67520514  0.54584622  0.70022547    -0.09300
C1494       C  0.70648572  0.58788610  0.70164477     0.29600
F1495       F  0.70416603  0.61450238  0.71930942    -0.19800
H1496       H  0.76267302  0.63597038  0.68484400     0.17900
H1497       H  0.65655880  0.48628078  0.68152480     0.17900
F1498       F  0.71783441  0.50764254  0.64869051    -0.19800
C1499       C  0.65984074  0.57465561  0.59845001    -0.21200
C1500       C  0.64574234  0.53683978  0.58466792    -0.09300
C1501       C  0.67126652  0.51671428  0.58448089     0.29600
C1502       C  0.71102525  0.53567534  0.59597956    -0.21200
C1503       C  0.72561181  0.57415004  0.60870982    -0.09300
C1504       C  0.69932801  0.59302580  0.61055118     0.29600
F1505       F  0.71263209  0.63003780  0.62299345    -0.19800
H1506       H  0.64114525  0.59108454  0.59892116     0.17900
H1507       H  0.73067975  0.52027899  0.59495649     0.17900
F1508       F  0.65834032  0.47915077  0.57278252    -0.19800
C1509       C  0.41108133  0.76507755  0.83066994    -0.21200
C1510       C  0.38081583  0.76191127  0.84894297    -0.09300
C1511       C  0.37116795  0.79508568  0.85172832     0.29600
C1512       C  0.39150543  0.83078804  0.83664375    -0.21200
C1513       C  0.42103537  0.83392276  0.81773473    -0.09300
C1514       C  0.43124136  0.80083142  0.81518153     0.29600
F1515       F  0.45963162  0.80235806  0.79734427    -0.19800
H1516       H  0.41799224  0.73921305  0.82782884     0.17900
H1517       H  0.38238786  0.85524251  0.83904008     0.17900
F1518       F  0.33963347  0.79169704  0.86759862    -0.19800
C1519       C  0.23502433  0.59194002  0.83695962    -0.21200
C1520       C  0.25064548  0.63484910  0.84093219    -0.09300
C1521       C  0.23014068  0.65586389  0.82969869     0.29600
C1522       C  0.19350499  0.63380026  0.81537876    -0.21200
C1523       C  0.17763153  0.59078529  0.81128734    -0.09300
C1524       C  0.19902895  0.57001440  0.82187080     0.29600
F1525       F  0.18439003  0.52839583  0.81840254    -0.19800
H1526       H  0.25068629  0.57554728  0.84558809     0.17900
H1527       H  0.17761771  0.65039839  0.80733511     0.17900
F1528       F  0.24491621  0.69753302  0.83329685    -0.19800
C1529       C  0.34964479  0.76657234  0.92118106    -0.21200
C1530       C  0.37359901  0.75268589  0.90645226    -0.09300
C1531       C  0.41766443  0.77327427  0.90844555     0.29600
C1532       C  0.43731629  0.80780784  0.92482120    -0.21200
C1533       C  0.41312855  0.82235062  0.93878449    -0.09300
C1534       C  0.36916579  0.80121067  0.93711778     0.29600
F1535       F  0.34513583  0.81383315  0.95112988    -0.19800
H1536       H  0.31558186  0.75096778  0.91984589     0.17900
H1537       H  0.47134674  0.82384033  0.92611563     0.17900
F1538       F  0.44141068  0.75999978  0.89471222    -0.19800
C1539       C  0.20371206  0.57624530  0.93064308    -0.21200
C1540       C  0.17146284  0.58807078  0.92880184    -0.09300
C1541       C  0.17628341  0.61965503  0.91107235     0.29600
C1542       C  0.21249055  0.63900532  0.89600678    -0.21200
C1543       C  0.24461655  0.62738138  0.89799151    -0.09300
C1544       C  0.24014357  0.59595398  0.91551856     0.29600
F1545       F  0.27147028  0.58517245  0.91843132    -0.19800
H1546       H  0.20100442  0.55206803  0.94401519     0.17900
H1547       H  0.21623639  0.66448166  0.88346169     0.17900
F1548       F  0.14694519  0.63328850  0.90890920    -0.19800
C1549       C  0.29341301  0.43434918  0.84731790    -0.21200
C1550       C  0.27049689  0.39054694  0.84763807    -0.09300
C1551       C  0.27816439  0.36734701  0.82872933     0.29600
C1552       C  0.30821564  0.38760969  0.80975311    -0.21200
C1553       C  0.33147603  0.43147050  0.80932659    -0.09300
C1554       C  0.32398134  0.45477551  0.82848618     0.29600
F1555       F  0.34558533  0.49710685  0.82889999    -0.19800
H1556       H  0.28662749  0.45281172  0.86119958     0.17900
H1557       H  0.31348266  0.36864505  0.79550234     0.17900
F1558       F  0.25589389  0.32508392  0.82834141    -0.19800
C1559       C  0.34713756  0.40589157  0.91365740    -0.21200
C1560       C  0.35868775  0.44354016  0.92711082    -0.09300
C1561       C  0.32863306  0.45827479  0.92942318     0.29600
C1562       C  0.28864076  0.43616585  0.91839038    -0.21200
C1563       C  0.27738320  0.39883808  0.90486537    -0.09300
C1564       C  0.30694345  0.38367967  0.90275449     0.29600
F1565       F  0.29674781  0.34711527  0.89041197    -0.19800
H1566       H  0.36902342  0.39314902  0.91187593     0.17900
H1567       H  0.26665634  0.44885750  0.91988964     0.17900
F1568       F  0.33777188  0.49431693  0.94207054    -0.19800
C1569       C  0.06792479  0.36533587  0.83286413    -0.21200
C1570       C  0.08923220  0.39854193  0.81543554    -0.09300
C1571       C  0.13334262  0.41558008  0.81319701     0.29600
C1572       C  0.15536464  0.40137695  0.82882669    -0.21200
C1573       C  0.13446997  0.36873619  0.84645834    -0.09300
C1574       C  0.09032141  0.35007096  0.84803825     0.29600
F1575       F  0.06901593  0.31742414  0.86418715    -0.19800
H1576       H  0.03402927  0.35132494  0.83482225     0.17900
H1577       H  0.18943073  0.41685214  0.82749982     0.17900
F1578       F  0.15598100  0.44723922  0.79660846    -0.19800
C1579       C  0.07538219  0.36747387  0.93002448    -0.21200
C1580       C  0.08744409  0.41035348  0.92939951    -0.09300
C1581       C  0.12255493  0.43740556  0.91482818     0.29600
C1582       C  0.14578265  0.42184095  0.90142159    -0.21200
C1583       C  0.13487075  0.37937478  0.90285629    -0.09300
C1584       C  0.09953437  0.35204685  0.91712693     0.29600
F1585       F  0.08918702  0.31096684  0.91902227    -0.19800
H1586       H  0.04857234  0.34645349  0.94144249     0.17900
H1587       H  0.17316315  0.44309648  0.89048767     0.17900
F1588       F  0.13471404  0.47897010  0.91391197    -0.19800
C1589       C  0.19463024  0.56308624  0.57393385    -0.21200
C1590       C  0.17733562  0.58766317  0.56320792    -0.09300
C1591       C  0.19772095  0.63078891  0.56861822     0.29600
C1592       C  0.23426450  0.64862555  0.58416954    -0.21200
C1593       C  0.25108914  0.62396992  0.59524568    -0.09300
C1594       C  0.23054082  0.58081818  0.59008550     0.29600
F1595       F  0.24508504  0.55573524  0.60084532    -0.19800
H1596       H  0.17961235  0.52978977  0.57032782     0.17900
H1597       H  0.24879599  0.68174107  0.58815049     0.17900
F1598       F  0.18264348  0.65587210  0.55850406    -0.19800
C1599       C  0.18153125  0.61284276  0.66901510    -0.21200
C1600       C  0.17676091  0.58127223  0.68678746    -0.09300
C1601       C  0.21013460  0.57089491  0.68877495     0.29600
C1602       C  0.24619897  0.59074420  0.67304550    -0.21200
C1603       C  0.25028505  0.62157072  0.65502331    -0.09300
C1604       C  0.21775503  0.63291864  0.65357761     0.29600
F1605       F  0.22165052  0.66470785  0.63803603    -0.19800
H1606       H  0.15725834  0.62254598  0.66718155     0.17900
H1607       H  0.27104320  0.58180230  0.67485576     0.17900
F1608       F  0.20802644  0.54139225  0.70576358    -0.19800
C1609       C  0.42202461  0.62982833  0.60405353    -0.21200
C1610       C  0.38154241  0.62349251  0.59686380    -0.09300
C1611       C  0.36450469  0.60178066  0.57361272     0.29600
C1612       C  0.38745411  0.58734487  0.55811654    -0.21200
C1613       C  0.42793554  0.59355864  0.56537387    -0.09300
C1614       C  0.44467187  0.61482077  0.58883363     0.29600
F1615       F  0.48342312  0.62191992  0.59698837    -0.19800
H1616       H  0.43671309  0.64720108  0.62140241     0.17900
H1617       H  0.37306009  0.57055700  0.54052631     0.17900
F1618       F  0.32510866  0.59343818  0.56607991    -0.19800
C1619       C  0.35388755  0.57153202  0.65376967    -0.21200
C1620       C  0.37158629  0.61521956  0.65662362    -0.09300
C1621       C  0.40301045  0.63412059  0.67560876     0.29600
C1622       C  0.41502878  0.61009884  0.69184645    -0.21200
C1623       C  0.39758619  0.56650108  0.68897842    -0.09300
C1624       C  0.36705416  0.54756895  0.66940419     0.29600
F1625       F  0.34959440  0.50576353  0.66551889    -0.19800
H1626       H  0.32988191  0.55590900  0.63923982     0.17900
H1627       H  0.43972696  0.62601356  0.70594278     0.17900
F1628       F  0.42469135  0.67617301  0.67717288    -0.19800
C1629       C  0.42091346  0.77733304  0.60037896    -0.21200
C1630       C  0.37890810  0.74740972  0.59556263    -0.09300
C1631       C  0.35801019  0.75436560  0.57442390     0.29600
C1632       C  0.37788321  0.79093955  0.55942530    -0.21200
C1633       C  0.41951967  0.82098316  0.56452065    -0.09300
C1634       C  0.44099351  0.81362801  0.58508563     0.29600
F1635       F  0.48118819  0.84198803  0.59070546    -0.19800
H1636       H  0.43813213  0.77270523  0.61619253     0.17900
H1637       H  0.36057111  0.79593214  0.54380666     0.17900
F1638       F  0.31787506  0.72643464  0.56857065    -0.19800
C1639       C  0.36704488  0.78462852  0.64697012    -0.21200
C1640       C  0.37128983  0.74959220  0.65566307    -0.09300
C1641       C  0.39049160  0.75345427  0.68004349     0.29600
C1642       C  0.40763714  0.79128872  0.69388037    -0.21200
C1643       C  0.40535233  0.82682630  0.68460765    -0.09300
C1644       C  0.38405234  0.82262634  0.66092516     0.29600
F1645       F  0.38026314  0.85537419  0.65083001    -0.19800
H1646       H  0.35045279  0.78285069  0.62917404     0.17900
H1647       H  0.42285491  0.79256330  0.71218780     0.17900
F1648       F  0.39334420  0.72091816  0.69086476    -0.19800
loop_ 
_geom_bond_atom_site_label_1 
_geom_bond_atom_site_label_2 
_geom_bond_distance 
_geom_bond_site_symmetry_2 
_ccdc_geom_bond_type 
C1            H2   1.110       .  S
C1            C7   1.558       .  S
C1            C6   1.551       .  S
C1            C5   1.560       .  S
C3            H4   1.108       .  S
C3            C9   1.573       .  S
C3            C8   1.563       .  S
C3           C10   1.558       .  S
C5            C8   1.385       .  D
C5          C786   1.519       .  S
C6            C9   1.389       .  D
C6          C806   1.511       .  S
C7           C10   1.383       .  D
C7          C769   1.520       .  S
C8          C796   1.523       .  S
C9          C816   1.537       .  S
C10         C779   1.512       .  S
C11          C12   1.413       .  A
C11          C16   1.403       .  A
C11         C759   1.468       .  S
C12          C13   1.399       .  A
C12         C749   1.486       .  S
C13          C14   1.398       .  A
C13          H18   1.086       .  S
C14          C15   1.414       .  A
C14         C726   1.477       .  S
C15          C16   1.403       .  A
C15         C739   1.483       .  S
C16          H17   1.085       .  S
C19          C20   1.414       .  A
C19          C24   1.402       .  A
C19         C696   1.480       .  S
C20          C21   1.400       .  A
C20         C719   1.479       .  S
C21          C22   1.401       .  A
C21          H26   1.085       .  S
C22          C23   1.414       .  A
C22         C706   1.479       .  S
C23          C24   1.400       .  A
C23         C686   1.475       .  S
C24          H25   1.085       .  S
C27          C28   1.409       .  A
C27          C32   1.401       .  A
C27         C679   1.479       .  S
C28          C29   1.393       .  A
C28         C666   1.465       .  S
C29          C30   1.394       .  A
C29          H34   1.086       .  S
C30          C31   1.413       .  A
C30         C646   1.466       .  S
C31          C32   1.406       .  A
C31         C659   1.486       .  S
C32          H33   1.084       .  S
Zr35         O37   2.425   1_556  S
Zr35         O41   2.396   1_556  S
Zr35        O862   2.457       .  S
Zr35         O44   2.391   1_556  S
Zr35         O46   2.404       .  S
Zr35        O867   2.379       .  S
Zr35        O869   2.393       .  S
Zr35        O860   2.438       .  S
O36        Zr859   2.441       .  S
O36          H92   0.990       .  S
O36         H100   0.990       .  S
O37          C57   1.282       .  A
O38        Zr859   2.458       .  S
O38          C59   1.288       .  A
O39         Zr49   2.450   1_655  S
O39          C58   1.287       .  A
O40         Zr48   2.470       .  S
O40          C59   1.291       .  A
O41          C58   1.281       .  A
O42         Zr50   2.432       .  S
O42          C57   1.285       .  A
O43         Zr48   2.386       .  S
O43        Zr859   2.374       .  S
O43        Zr874   2.381       .  S
O44         Zr49   2.398   1_655  S
O44         Zr50   2.365       .  S
O44          H79   0.965       .  S
O45         Zr48   2.395       .  S
O45         Zr65   2.397   1_655  S
O45        Zr859   2.388       .  S
O45          H82   0.966       .  S
O46         Zr49   2.402   1_656  S
O46        Zr889   2.393   1_655  S
Zr47         O66   2.429       .  S
Zr47         O62   2.418       .  S
Zr47        O898   2.461       .  S
Zr47         O54   2.412       .  S
Zr47         O55   2.384       .  S
Zr47        O877   2.394       .  S
Zr47        O880   2.380       .  S
Zr47        O896   2.441       .  S
Zr48         O61   2.433   1_655  S
Zr48         O54   2.408   1_655  S
Zr48         O55   2.397   1_655  S
Zr48         O67   2.438       .  S
Zr48         O60   2.434       .  S
Zr49         O75   2.471       .  S
Zr49         O53   2.393       .  S
Zr49         O56   2.388   1_554  S
Zr49         O51   2.434       .  S
Zr49         O73   2.439       .  S
Zr50         O53   2.401   1_655  S
Zr50        O867   2.381   1_554  S
Zr50        O878   2.397   1_654  S
Zr50         O76   2.435       .  S
Zr50         O77   2.436   1_655  S
Zr50         O52   2.437       .  S
O51          H88   0.990       .  S
O52          H83   0.990       .  S
O52          H97   0.990       .  S
O53        Zr871   2.392   1_554  S
O54        Zr874   2.392   1_455  S
O54          H80   0.966       .  S
O55         Zr65   2.365       .  S
O56        Zr871   2.378       .  S
O56        Zr889   2.389       .  S
O56          H81   0.966       .  S
C57         C629   1.476       .  S
C58         C656   1.481       .  S
C59         C639   1.505       .  S
O60          H96   0.990       .  S
O61          C63   1.285       .  A
O62          C63   1.283       .  A
C63         C756   1.464       .  S
O64         Zr65   2.437   1_655  S
O64          H93   0.990       .  S
Zr65         O70   2.418       .  S
Zr65        O870   2.390   1_455  S
Zr65        O880   2.387       .  S
Zr65         O68   2.436       .  S
Zr65         O69   2.438       .  S
O66          C71   1.284       .  A
O67          H84   0.990       .  S
O67          H99   0.990       .  S
O68          H85   0.990       .  S
O69          H89   0.990       .  S
O69          H98   0.989       .  S
O70          C71   1.281       .  A
C71         C716   1.485       .  S
O72        Zr871   2.438   1_554  S
O72          H91   0.990       .  S
O72          H95   0.990       .  S
O73          H87   0.990       .  S
O73          H94   0.990       .  S
O74        Zr871   2.477   1_554  S
O74          C78   1.293       .  A
O75          C78   1.292       .  A
O76          H86   0.990   1_655  S
O77          H90   0.990       .  S
C78         C766   1.516       .  S
Zr101       O103   2.420       .  S
Zr101       O104   2.477       .  S
Zr101       O107   2.407       .  S
Zr101       O109   2.375       .  S
Zr101       O110   2.393       .  S
Zr101       O111   2.388       .  S
Zr101       O112   2.411       .  S
Zr101       O102   2.437       .  S
O102        H158   0.990       .  S
O102        H166   0.990       .  S
O103        C123   1.281       .  A
O104        C125   1.293       .  A
O105       Zr115   2.454   1_455  S
O105        C124   1.289       .  A
O106       Zr114   2.454       .  S
O106        C125   1.289       .  A
O107        C124   1.282       .  A
O108       Zr116   2.429       .  S
O108        C123   1.284       .  A
O109       Zr114   2.381       .  S
O109       Zr116   2.379       .  S
O110       Zr115   2.395   1_455  S
O110       Zr116   2.365       .  S
O110        H145   0.966       .  S
O111       Zr114   2.389       .  S
O111       Zr131   2.402   1_455  S
O111        H148   0.966       .  S
O112       Zr115   2.400   1_455  S
O112       Zr131   2.393   1_455  S
Zr113       O132   2.429       .  S
Zr113       O140   2.473       .  S
Zr113       O128   2.424       .  S
Zr113       O119   2.399       .  S
Zr113       O120   2.417       .  S
Zr113       O121   2.386       .  S
Zr113       O122   2.378       .  S
Zr113       O138   2.441       .  S
Zr114       O127   2.413   1_455  S
Zr114       O120   2.410   1_455  S
Zr114       O121   2.394   1_455  S
Zr114       O133   2.438       .  S
Zr114       O126   2.436       .  S
Zr115       O141   2.468       .  S
Zr115       O119   2.396       .  S
Zr115       O122   2.387       .  S
Zr115       O117   2.437       .  S
Zr115       O139   2.436       .  S
Zr116       O119   2.403   1_455  S
Zr116       O120   2.394   1_455  S
Zr116       O142   2.436       .  S
Zr116       O143   2.436   1_455  S
Zr116       O118   2.436       .  S
O117        H154   0.990       .  S
O118        H149   0.990       .  S
O118        H163   0.990       .  S
O120        H146   0.966       .  S
O121       Zr131   2.366       .  S
O122       Zr131   2.382       .  S
O122        H147   0.965       .  S
C123        C699   1.468       .  S
C124        C746   1.486       .  S
C125        C776   1.517       .  S
O126        H162   0.990       .  S
O127        C129   1.281       .  A
O128        C129   1.284       .  A
C129        C649   1.453       .  S
O130       Zr131   2.436   1_455  S
O130        H159   0.990       .  S
Zr131       O136   2.429       .  S
Zr131       O134   2.438       .  S
Zr131       O135   2.441       .  S
O132        C137   1.284       .  A
O133        H150   0.990       .  S
O133        H165   0.990       .  S
O134        H151   0.990       .  S
O135        H155   0.990       .  S
O135        H164   0.989       .  S
O136        C137   1.284       .  A
C137        C606   1.488       .  S
O138        H157   0.990       .  S
O138        H161   0.990       .  S
O139        H153   0.990       .  S
O139        H160   0.990   1_655  S
O140        C144   1.293       .  A
O141        C144   1.292       .  A
O142        H152   0.990       .  S
O143        H156   0.990       .  S
C144        C616   1.520       .  S
C167        C168   1.416       .  A
C167        C172   1.400       .  A
C167        C626   1.482       .  S
C168        C169   1.402       .  A
C168        C609   1.480       .  S
C169        C170   1.402       .  A
C169        H174   1.085       .  S
C170        C171   1.412       .  A
C170        C589   1.477       .  S
C171        C172   1.400       .  A
C171        C599   1.477       .  S
C172        H173   1.085       .  S
C175        C176   1.416       .  A
C175        C180   1.409       .  A
C175        C566   1.485       .  S
C176        C177   1.395       .  A
C176        C576   1.475       .  S
C177        C178   1.392       .  A
C177        H182   1.086       .  S
C178        C179   1.408       .  A
C178        C549   1.469       .  S
C179        C180   1.401       .  A
C179        C559   1.478       .  S
C180        H181   1.084       .  S
C183        C184   1.414       .  A
C183        C188   1.394       .  A
C183        C536   1.469       .  S
C184        C185   1.409       .  A
C184        C519   1.486       .  S
C185        C186   1.401       .  A
C185        H190   1.084       .  S
C186        C187   1.408       .  A
C186        C506   1.483       .  S
C187        C188   1.394       .  A
C187        C526   1.466       .  S
C188        H189   1.086       .  S
Zr191       O193   2.443       .  S
Zr191       O194   2.481       .  S
Zr191       O197   2.419       .  S
Zr191       O199   2.376       .  S
Zr191       O200   2.402       .  S
Zr191       O201   2.397       .  S
Zr191       O202   2.415       .  S
Zr191       O192   2.445       .  S
O192        H248   0.991       .  S
O192        H256   0.990       .  S
O193        C213   1.284       .  A
O194        C215   1.291       .  A
O195       Zr205   2.426   1_545  S
O195        C214   1.281       .  A
O196       Zr204   2.467       .  S
O196        C215   1.290       .  A
O197        C214   1.279       .  A
O198       Zr206   2.405       .  S
O198        C213   1.280       .  A
O199       Zr204   2.391       .  S
O199       Zr206   2.380       .  S
O200       Zr205   2.415   1_545  S
O200       Zr206   2.367       .  S
O200        H235   0.966       .  S
O201       Zr204   2.403       .  S
O201       Zr221   2.402   1_545  S
O201        H238   0.966       .  S
O202       Zr205   2.414   1_545  S
O202       Zr221   2.383   1_545  S
Zr203       O222   2.435       .  S
Zr203       O230   2.450       .  S
Zr203       O218   2.390       .  S
Zr203       O209   2.387       .  S
Zr203       O210   2.405       .  S
Zr203       O211   2.385       .  S
Zr203       O212   2.374       .  S
Zr203       O228   2.446       .  S
Zr204       O217   2.452   1_545  S
Zr204       O210   2.409   1_545  S
Zr204       O211   2.395   1_545  S
Zr204       O223   2.436       .  S
Zr204       O216   2.434       .  S
Zr205       O231   2.486       .  S
Zr205       O209   2.389       .  S
Zr205       O212   2.379       .  S
Zr205       O207   2.435       .  S
Zr205       O229   2.438       .  S
Zr206       O209   2.398   1_545  S
Zr206       O210   2.384   1_545  S
Zr206       O232   2.435       .  S
Zr206       O233   2.434   1_545  S
Zr206       O208   2.438       .  S
O207        H244   0.990       .  S
O208        H239   0.990       .  S
O208        H253   0.990       .  S
O210        H236   0.966       .  S
O211       Zr221   2.368       .  S
O212       Zr221   2.382       .  S
O212        H237   0.966       .  S
C213        C586   1.472       .  S
C214        C569   1.468       .  S
C215        C499   1.511       .  S
O216        H252   0.990       .  S
O217        C219   1.288       .  A
O218        C219   1.280       .  A
C219        C516   1.479       .  S
O220       Zr221   2.433       .  S
O220        H249   0.990   1_565  S
Zr221       O226   2.407       .  S
Zr221       O224   2.437       .  S
Zr221       O225   2.441       .  S
O222        C227   1.285       .  A
O223        H240   0.990       .  S
O223        H255   0.990       .  S
O224        H241   0.990       .  S
O225        H245   0.990       .  S
O225        H254   0.990       .  S
O226        C227   1.281       .  A
C227        C689   1.483       .  S
O228        H247   0.990       .  S
O228        H251   0.990       .  S
O229        H243   0.990       .  S
O229        H250   0.990       .  S
O230        C234   1.289       .  A
O231        C234   1.295       .  A
O232        H242   0.990       .  S
O233        H246   0.990       .  S
C234        C819   1.517       .  S
Zr257       O259   2.444       .  S
Zr257       O260   2.503       .  S
Zr257       O263   2.457       .  S
Zr257       O265   2.387       .  S
Zr257       O266   2.418       .  S
Zr257       O267   2.408       .  S
Zr257       O268   2.396       .  S
Zr257       O258   2.443       .  S
O258        H314   0.990       .  S
O258        H322   0.991       .  S
O259        C279   1.281       .  A
O260        C281   1.296       .  A
O261       Zr271   2.430       .  S
O261        C280   1.285       .  A
O262       Zr270   2.464       .  S
O262        C281   1.290       .  A
O263        C280   1.292       .  A
O264       Zr272   2.389       .  S
O264        C279   1.270       .  A
O265       Zr270   2.393       .  S
O265       Zr272   2.390       .  S
O266       Zr271   2.400       .  S
O266       Zr272   2.382       .  S
O266        H301   0.965       .  S
O267       Zr270   2.394       .  S
O267       Zr287   2.381       .  S
O267        H304   0.964       .  S
O268       Zr271   2.392       .  S
O268       Zr287   2.355       .  S
Zr269       O288   2.435       .  S
Zr269       O296   2.474       .  S
Zr269       O284   2.441       .  S
Zr269       O275   2.392       .  S
Zr269       O276   2.414       .  S
Zr269       O277   2.393       .  S
Zr269       O278   2.380       .  S
Zr269       O294   2.440       .  S
Zr270       O283   2.431       .  S
Zr270       O276   2.422       .  S
Zr270       O277   2.402       .  S
Zr270       O289   2.436       .  S
Zr270       O282   2.435       .  S
Zr271       O297   2.466       .  S
Zr271       O275   2.384       .  S
Zr271       O278   2.387       .  S
Zr271       O273   2.435       .  S
Zr271       O295   2.434       .  S
Zr272       O275   2.390       .  S
Zr272       O276   2.374       .  S
Zr272       O298   2.438       .  S
Zr272       O299   2.436       .  S
Zr272       O274   2.436       .  S
O273        H310   0.990       .  S
O274        H305   0.990       .  S
O274        H319   0.990       .  S
O276        H302   0.964       .  S
O277       Zr287   2.381       .  S
O278       Zr287   2.386       .  S
O278        H303   0.966       .  S
C279        C729   1.478       .  S
C280        C509   1.485       .  S
C281        C799   1.514       .  S
O282        H318   0.990       .  S
O283        C285   1.285       .  A
O284        C285   1.286       .  A
C285        C556   1.485       .  S
O286       Zr287   2.439       .  S
O286        H315   0.990       .  S
Zr287       O292   2.372       .  S
Zr287       O290   2.437       .  S
Zr287       O291   2.439       .  S
O288        C293   1.283       .  A
O289        H306   0.990       .  S
O289        H321   0.990       .  S
O290        H307   0.990       .  S
O291        H311   0.990       .  S
O291        H320   0.990       .  S
O292        C293   1.274       .  A
C293        C669   1.462       .  S
O294        H313   0.990       .  S
O294        H317   0.990       .  S
O295        H309   0.990       .  S
O295        H316   0.990       .  S
O296        C300   1.292       .  A
O297        C300   1.291       .  A
O298        H308   0.990       .  S
O299        H312   0.990       .  S
C300        C489   1.516       .  S
Zr323       O325   2.422       .  S
Zr323       O329   2.418       .  S
Zr323      O1150   2.477       .  S
Zr323       O332   2.390       .  S
Zr323       O334   2.411       .  S
Zr323      O1155   2.379       .  S
Zr323      O1157   2.391       .  S
Zr323      O1148   2.438       .  S
O324      Zr1147   2.437   1_554  S
O324        H380   0.990       .  S
O324        H388   0.990       .  S
O325        C345   1.283       .  A
O326      Zr1147   2.483   1_554  S
O326        C347   1.293       .  A
O327       Zr337   2.417   1_565  S
O327        C346   1.281       .  A
O328       Zr336   2.450       .  S
O328        C347   1.287       .  A
O329        C346   1.284       .  A
O330       Zr338   2.432       .  S
O330        C345   1.286       .  A
O331       Zr336   2.382       .  S
O331      Zr1147   2.379   1_554  S
O331      Zr1162   2.373   1_554  S
O332       Zr337   2.385   1_565  S
O332       Zr338   2.360       .  S
O332        H367   0.965       .  S
O333       Zr336   2.395       .  S
O333       Zr353   2.397   1_565  S
O333      Zr1147   2.392   1_554  S
O333        H370   0.966       .  S
O334       Zr337   2.403   1_565  S
O334      Zr1177   2.395   1_565  S
Zr335       O354   2.428       .  S
Zr335       O350   2.431       .  S
Zr335      O1186   2.488   1_554  S
Zr335       O342   2.419   1_545  S
Zr335       O343   2.386       .  S
Zr335      O1165   2.395   1_554  S
Zr335      O1168   2.379   1_554  S
Zr335      O1184   2.438   1_554  S
Zr336       O349   2.421   1_565  S
Zr336       O342   2.407       .  S
Zr336       O343   2.389   1_565  S
Zr336       O355   2.438       .  S
Zr336       O348   2.435       .  S
Zr337       O363   2.445       .  S
Zr337       O341   2.389       .  S
Zr337       O344   2.382       .  S
Zr337       O339   2.433       .  S
Zr337       O361   2.436       .  S
Zr338       O341   2.404   1_565  S
Zr338      O1155   2.380       .  S
Zr338      O1166   2.391       .  S
Zr338       O364   2.435       .  S
Zr338       O365   2.435       .  S
Zr338       O340   2.438       .  S
O339        H376   0.990       .  S
O340        H371   0.990       .  S
O340        H385   0.990       .  S
O341      Zr1159   2.391       .  S
O342      Zr1162   2.394   1_554  S
O342        H368   0.966   1_565  S
O343       Zr353   2.366       .  S
O344      Zr1159   2.377       .  S
O344      Zr1177   2.383       .  S
O344        H369   0.967       .  S
C345        C709   1.474       .  S
C346        C539   1.450       .  S
C347        C809   1.502       .  S
O348        H384   0.990       .  S
O349        C351   1.282       .  A
O350        C351   1.286       .  A
C351        C579   1.460       .  S
O352       Zr353   2.440   1_565  S
O352        H381   0.990   1_565  S
Zr353       O358   2.422       .  S
Zr353      O1158   2.393   1_544  S
Zr353      O1168   2.386   1_554  S
Zr353       O356   2.437       .  S
Zr353       O357   2.441       .  S
O354        C359   1.285       .  A
O355        H372   0.990       .  S
O355        H387   0.990       .  S
O356        H373   0.990       .  S
O357        H377   0.990       .  S
O357        H386   0.990       .  S
O358        C359   1.283       .  A
C359        C596   1.486       .  S
O360      Zr1159   2.441       .  S
O360        H379   0.990       .  S
O360        H383   0.990       .  S
O361        H375   0.990       .  S
O361        H382   0.990   1_545  S
O362      Zr1159   2.490       .  S
O362        C366   1.295       .  A
O363        C366   1.287       .  A
O364        H374   0.990       .  S
O365        H378   0.990   1_565  S
C366        C476   1.521       .  S
Zr389       O391   2.441       .  S
Zr389       O395   2.455       .  S
Zr389      O1216   2.481       .  S
Zr389       O398   2.413       .  S
Zr389       O400   2.393       .  S
Zr389      O1221   2.386       .  S
Zr389      O1223   2.410       .  S
Zr389      O1214   2.441       .  S
O390      Zr1213   2.441       .  S
O390        H454   0.991       .  S
O390       H1270   0.990       .  S
O391        C411   1.281       .  A
O392      Zr1213   2.485   1_554  S
O392        C413   1.293       .  A
O393       Zr403   2.429       .  S
O393        C412   1.285       .  A
O394       Zr402   2.453       .  S
O394        C413   1.288       .  A
O395        C412   1.290       .  A
O396       Zr404   2.390       .  S
O396        C411   1.269       .  A
O397       Zr402   2.387       .  S
O397      Zr1213   2.386   1_554  S
O397      Zr1228   2.390   1_554  S
O398       Zr403   2.395       .  S
O398       Zr404   2.385       .  S
O398        H433   0.966       .  S
O399       Zr402   2.395       .  S
O399       Zr419   2.396       .  S
O399      Zr1213   2.409   1_554  S
O399        H436   0.965       .  S
O400       Zr403   2.388       .  S
O400      Zr1243   2.357       .  S
Zr401       O420   2.419       .  S
Zr401       O416   2.437       .  S
Zr401      O1252   2.457   1_554  S
Zr401       O408   2.406       .  S
Zr401       O409   2.389       .  S
Zr401      O1231   2.391   1_554  S
Zr401      O1234   2.385   1_554  S
Zr401      O1250   2.441       .  S
Zr402       O415   2.424       .  S
Zr402       O408   2.417       .  S
Zr402       O409   2.396       .  S
Zr402       O421   2.436       .  S
Zr402       O414   2.434       .  S
Zr403       O429   2.453       .  S
Zr403       O407   2.386       .  S
Zr403       O410   2.393       .  S
Zr403       O405   2.435       .  S
Zr403       O427   2.437       .  S
Zr404       O407   2.391       .  S
Zr404      O1221   2.389       .  S
Zr404      O1232   2.372       .  S
Zr404       O430   2.438       .  S
Zr404       O431   2.437       .  S
Zr404       O406   2.437       .  S
O405        H442   0.990       .  S
O406        H437   0.990       .  S
O406        H451   0.990       .  S
O407      Zr1225   2.397       .  S
O408      Zr1228   2.369   1_554  S
O408        H434   0.965       .  S
O409       Zr419   2.371       .  S
O410      Zr1225   2.385       .  S
O410      Zr1243   2.384       .  S
O410        H435   0.966       .  S
C411        C529   1.474       .  S
C412        C736   1.483       .  S
C413        C789   1.513       .  S
O414        H450   0.990       .  S
O415        C417   1.285       .  A
O416        C417   1.286       .  A
C417        C676   1.482       .  S
O418       Zr419   2.435       .  S
O418        H447   0.990       .  S
Zr419       O424   2.388       .  S
Zr419      O1224   2.366   1_554  S
Zr419      O1234   2.380   1_554  S
Zr419       O422   2.437       .  S
Zr419       O423   2.440   1_554  S
O420        C425   1.280       .  A
O421        H438   0.990       .  S
O421        H453   0.990       .  S
O422        H439   0.990       .  S
O423        H443   0.990       .  S
O423        H452   0.990       .  S
O424        C425   1.277       .  A
C425        C546   1.456       .  S
O426      Zr1225   2.440       .  S
O426        H445   0.990       .  S
O426       H1273   0.990       .  S
O427        H441   0.990       .  S
O427        H448   0.990       .  S
O428      Zr1225   2.466       .  S
O428        C432   1.291       .  A
O429        C432   1.288       .  A
O430        H440   0.990       .  S
O431        H444   0.990       .  S
C432        C469   1.508       .  S
H446       O1214   0.990       .  S
H449       O1250   0.990       .  S
C455        H456   1.110       .  S
C455        C461   1.560       .  S
C455        C460   1.559       .  S
C455        C459   1.556       .  S
C457        H458   1.110       .  S
C457        C463   1.560       .  S
C457        C462   1.560       .  S
C457        C464   1.557       .  S
C459        C462   1.385       .  D
C459        C479   1.521       .  S
C460        C463   1.388       .  D
C460        C466   1.515       .  S
C461        C464   1.382       .  D
C461        C636   1.511       .  S
C462        C496   1.513       .  S
C463        C486   1.524       .  S
C464        C619   1.519       .  S
C465        C466   1.410       .  A
C465        C470   1.410       .  A
C465        H472   1.083       .  S
C466        C467   1.409       .  A
C467        C468   1.409       .  A
C467        F474   1.356       .  S
C468        C469   1.409       .  A
C468        H473   1.083       .  S
C469        C470   1.414       .  A
C470        F471   1.358       .  S
C475        C476   1.413       .  A
C475        C480   1.417       .  A
C475        H482   1.083       .  S
C476        C477   1.418       .  A
C477        C478   1.408       .  A
C477        F484   1.357       .  S
C478        C479   1.406       .  A
C478        H483   1.081       .  S
C479        C480   1.414       .  A
C480        F481   1.357       .  S
C485        C486   1.412       .  A
C485        C490   1.411       .  A
C485        H492   1.083       .  S
C486        C487   1.412       .  A
C487        C488   1.415       .  A
C487        F494   1.357       .  S
C488        C489   1.412       .  A
C488        H493   1.083       .  S
C489        C490   1.413       .  A
C490        F491   1.357       .  S
C495        C496   1.408       .  A
C495        C500   1.414       .  A
C495        H502   1.083       .  S
C496        C497   1.410       .  A
C497        C498   1.414       .  A
C497        F504   1.357       .  S
C498        C499   1.410       .  A
C498        H503   1.083       .  S
C499        C500   1.412       .  A
C500        F501   1.357       .  S
C505        C506   1.401       .  A
C505        C510   1.401       .  A
C505        H512   1.083       .  S
C506        C507   1.406       .  A
C507        C508   1.393       .  A
C507        F514   1.355       .  S
C508        C509   1.404       .  A
C508        H513   1.083       .  S
C509        C510   1.414       .  A
C510        F511   1.357       .  S
C515        C516   1.404       .  A
C515        C520   1.377       .  A
C515        H522   1.083       .  S
C516        C517   1.408       .  A
C517        C518   1.406       .  A
C517        F524   1.357       .  S
C518        C519   1.410       .  A
C518        H523   1.083       .  S
C519        C520   1.403       .  A
C520        F521   1.354       .  S
C525        C526   1.395       .  A
C525        C530   1.388       .  A
C525        H532   1.084       .  S
C526        C527   1.405       .  A
C527        C528   1.394       .  A
C527        F534   1.357       .  S
C528        C529   1.405       .  A
C528        H533   1.083       .  S
C529        C530   1.413       .  A
C530        F531   1.356       .  S
C535        C536   1.404       .  A
C535        C540   1.396       .  A
C535        H542   1.083       .  S
C536        C537   1.405       .  A
C537        C538   1.389       .  A
C537        F544   1.358       .  S
C538        C539   1.398       .  A
C538        H543   1.084       .  S
C539        C540   1.400       .  A
C540        F541   1.357       .  S
C545        C546   1.401       .  A
C545        C550   1.384       .  A
C545        H552   1.084       .  S
C546        C547   1.403       .  A
C547        C548   1.395       .  A
C547        F554   1.357       .  S
C548        C549   1.405       .  A
C548        H553   1.082       .  S
C549        C550   1.402       .  A
C550        F551   1.358       .  S
C555        C556   1.410       .  A
C555        C560   1.402       .  A
C555        H562   1.083       .  S
C556        C557   1.411       .  A
C557        C558   1.393       .  A
C557        F564   1.357       .  S
C558        C559   1.399       .  A
C558        H563   1.084       .  S
C559        C560   1.402       .  A
C560        F561   1.357       .  S
C565        C566   1.409       .  A
C565        C570   1.399       .  A
C565        H572   1.083       .  S
C566        C567   1.406       .  A
C567        C568   1.386       .  A
C567        F574   1.358       .  S
C568        C569   1.401       .  A
C568        H573   1.080       .  S
C569        C570   1.404       .  A
C570        F571   1.358       .  S
C575        C576   1.403       .  A
C575        C580   1.395       .  A
C575        H582   1.084       .  S
C576        C577   1.406       .  A
C577        C578   1.396       .  A
C577        F584   1.358       .  S
C578        C579   1.400       .  A
C578        H583   1.083       .  S
C579        C580   1.403       .  A
C580        F581   1.358       .  S
C585        C586   1.401       .  A
C585        C590   1.389       .  A
C585        H592   1.084       .  S
C586        C587   1.407       .  A
C587        C588   1.404       .  A
C587        F594   1.355       .  S
C588        C589   1.404       .  A
C588        H593   1.083       .  S
C589        C590   1.404       .  A
C590        F591   1.358       .  S
C595        C596   1.409       .  A
C595        C600   1.397       .  A
C595        H602   1.083       .  S
C596        C597   1.413       .  A
C597        C598   1.396       .  A
C597        F604   1.358       .  S
C598        C599   1.402       .  A
C598        H603   1.083       .  S
C599        C600   1.401       .  A
C600        F601   1.357       .  S
C605        C606   1.411       .  A
C605        C610   1.402       .  A
C605        H612   1.083       .  S
C606        C607   1.411       .  A
C607        C608   1.391       .  A
C607        F614   1.357       .  S
C608        C609   1.401       .  A
C608        H613   1.082       .  S
C609        C610   1.405       .  A
C610        F611   1.358       .  S
C615        C616   1.413       .  A
C615        C620   1.413       .  A
C615        H622   1.083       .  S
C616        C617   1.417       .  A
C617        C618   1.413       .  A
C617        F624   1.357       .  S
C618        C619   1.409       .  A
C618        H623   1.081       .  S
C619        C620   1.409       .  A
C620        F621   1.357       .  S
C625        C626   1.403       .  A
C625        C630   1.403       .  A
C625        H632   1.083       .  S
C626        C627   1.407       .  A
C627        C628   1.393       .  A
C627        F634   1.358       .  S
C628        C629   1.401       .  A
C628        H633   1.083       .  S
C629        C630   1.410       .  A
C630        F631   1.357       .  S
C635        C636   1.409       .  A
C635        C640   1.414       .  A
C635        H642   1.083       .  S
C636        C637   1.408       .  A
C637        C638   1.410       .  A
C637        F644   1.357       .  S
C638        C639   1.410       .  A
C638        H643   1.083       .  S
C639        C640   1.411       .  A
C640        F641   1.357       .  S
C645        C646   1.402       .  A
C645        C650   1.397       .  A
C645        H652   1.083       .  S
C646        C647   1.405       .  A
C647        C648   1.388       .  A
C647        F654   1.358       .  S
C648        C649   1.397       .  A
C648        H653   1.084       .  S
C649        C650   1.402       .  A
C650        F651   1.357       .  S
C655        C656   1.405       .  A
C655        C660   1.381       .  A
C655        H662   1.083       .  S
C656        C657   1.409       .  A
C657        C658   1.405       .  A
C657        F664   1.357       .  S
C658        C659   1.409       .  A
C658        H663   1.083       .  S
C659        C660   1.404       .  A
C660        F661   1.357       .  S
C665        C666   1.396       .  A
C665        C670   1.387       .  A
C665        H672   1.084       .  S
C666        C667   1.407       .  A
C667        C668   1.394       .  A
C667        F674   1.357       .  S
C668        C669   1.401       .  A
C668        H673   1.083       .  S
C669        C670   1.408       .  A
C670        F671   1.358       .  S
C675        C676   1.411       .  A
C675        C680   1.400       .  A
C675        H682   1.083       .  S
C676        C677   1.409       .  A
C677        C678   1.391       .  A
C677        F684   1.357       .  S
C678        C679   1.401       .  A
C678        H683   1.082       .  S
C679        C680   1.402       .  A
C680        F681   1.357       .  S
C685        C686   1.403       .  A
C685        C690   1.403       .  A
C685        H692   1.083       .  S
C686        C687   1.401       .  A
C687        C688   1.389       .  A
C687        F694   1.358       .  S
C688        C689   1.408       .  A
C688        H693   1.083       .  S
C689        C690   1.410       .  A
C690        F691   1.357       .  S
C695        C696   1.403       .  A
C695        C700   1.401       .  A
C695        H702   1.083       .  S
C696        C697   1.407       .  A
C697        C698   1.392       .  A
C697        F704   1.358       .  S
C698        C699   1.399       .  A
C698        H703   1.084       .  S
C699        C700   1.407       .  A
C700        F701   1.355       .  S
C705        C706   1.402       .  A
C705        C710   1.390       .  A
C705        H712   1.084       .  S
C706        C707   1.404       .  A
C707        C708   1.404       .  A
C707        F714   1.357       .  S
C708        C709   1.410       .  A
C708        H713   1.083       .  S
C709        C710   1.403       .  A
C710        F711   1.358       .  S
C715        C716   1.409       .  A
C715        C720   1.399       .  A
C715        H722   1.083       .  S
C716        C717   1.412       .  A
C717        C718   1.393       .  A
C717        F724   1.358       .  S
C718        C719   1.401       .  A
C718        H723   1.083       .  S
C719        C720   1.403       .  A
C720        F721   1.357       .  S
C725        C726   1.405       .  A
C725        C730   1.395       .  A
C725        H732   1.083       .  S
C726        C727   1.401       .  A
C727        C728   1.393       .  A
C727        F734   1.358       .  S
C728        C729   1.410       .  A
C728        H733   1.083       .  S
C729        C730   1.407       .  A
C730        F731   1.357       .  S
C735        C736   1.410       .  A
C735        C740   1.398       .  A
C735        H742   1.083       .  S
C736        C737   1.408       .  A
C737        C738   1.395       .  A
C737        F744   1.357       .  S
C738        C739   1.405       .  A
C738        H743   1.084       .  S
C739        C740   1.403       .  A
C740        F741   1.357       .  S
C745        C746   1.410       .  A
C745        C750   1.407       .  A
C745        H752   1.083       .  S
C746        C747   1.411       .  A
C747        C748   1.386       .  A
C747        F754   1.358       .  S
C748        C749   1.402       .  A
C748        H753   1.084       .  S
C749        C750   1.404       .  A
C750        F751   1.356       .  S
C755        C756   1.405       .  A
C755        C760   1.401       .  A
C755        H762   1.083       .  S
C756        C757   1.403       .  A
C757        C758   1.389       .  A
C757        F764   1.358       .  S
C758        C759   1.399       .  A
C758        H763   1.084       .  S
C759        C760   1.403       .  A
C760        F761   1.357       .  S
C765        C766   1.413       .  A
C765        C770   1.417       .  A
C765        H772   1.083       .  S
C766        C767   1.413       .  A
C767        C768   1.414       .  A
C767        F774   1.358       .  S
C768        C769   1.409       .  A
C768        H773   1.081       .  S
C769        C770   1.411       .  A
C770        F771   1.357       .  S
C775        C776   1.413       .  A
C775        C780   1.411       .  A
C775        H782   1.083       .  S
C776        C777   1.415       .  A
C777        C778   1.414       .  A
C777        F784   1.357       .  S
C778        C779   1.408       .  A
C778        H783   1.083       .  S
C779        C780   1.408       .  A
C780        F781   1.355       .  S
C785        C786   1.411       .  A
C785        C790   1.411       .  A
C785        H792   1.082       .  S
C786        C787   1.411       .  A
C787        C788   1.410       .  A
C787        F794   1.355       .  S
C788        C789   1.410       .  A
C788        H793   1.083       .  S
C789        C790   1.415       .  A
C790        F791   1.358       .  S
C795        C796   1.411       .  A
C795        C800   1.416       .  A
C795        H802   1.083       .  S
C796        C797   1.411       .  A
C797        C798   1.413       .  A
C797        F804   1.353       .  S
C798        C799   1.409       .  A
C798        H803   1.083       .  S
C799        C800   1.413       .  A
C800        F801   1.357       .  S
C805        C806   1.409       .  A
C805        C810   1.414       .  A
C805        H812   1.083       .  S
C806        C807   1.409       .  A
C807        C808   1.408       .  A
C807        F814   1.356       .  S
C808        C809   1.407       .  A
C808        H813   1.083       .  S
C809        C810   1.411       .  A
C810        F811   1.357       .  S
C815        C816   1.417       .  A
C815        C820   1.414       .  A
C815        H822   1.077       .  S
C816        C817   1.414       .  A
C817        C818   1.410       .  A
C817        F824   1.350       .  S
C818        C819   1.410       .  A
C818        H823   1.083       .  S
C819        C820   1.411       .  A
C820        F821   1.357       .  S
C825        H826   1.110       .  S
C825        C831   1.555       .  S
C825        C830   1.553       .  S
C825        C829   1.560       .  S
C827        H828   1.109       .  S
C827        C833   1.571       .  S
C827        C832   1.559       .  S
C827        C834   1.553       .  S
C829        C832   1.385       .  D
C829       C1610   1.517       .  S
C830        C833   1.390       .  D
C830       C1630   1.514       .  S
C831        C834   1.381       .  D
C831       C1593   1.512       .  S
C832       C1620   1.520       .  S
C833       C1640   1.535       .  S
C834       C1603   1.506       .  S
C835        C836   1.413       .  A
C835        C840   1.405       .  A
C835       C1583   1.466       .  S
C836        C837   1.398       .  A
C836       C1573   1.486       .  S
C837        C838   1.398       .  A
C837        H842   1.086       .  S
C838        C839   1.412       .  A
C838       C1550   1.473       .  S
C839        C840   1.404       .  A
C839       C1563   1.490       .  S
C840        H841   1.085       .  S
C843        C844   1.412       .  A
C843        C848   1.400       .  A
C843       C1520   1.470       .  S
C844        C845   1.396       .  A
C844       C1543   1.481       .  S
C845        C846   1.402       .  A
C845        H850   1.085       .  S
C846        C847   1.416       .  A
C846       C1530   1.474       .  S
C847        C848   1.399       .  A
C847       C1510   1.479       .  S
C848        H849   1.085       .  S
C851        C852   1.409       .  A
C851        C856   1.399       .  A
C851       C1503   1.480       .  S
C852        C853   1.394       .  A
C852       C1490   1.465       .  S
C853        C854   1.396       .  A
C853        H858   1.086       .  S
C854        C855   1.414       .  A
C854       C1470   1.469       .  S
C855        C856   1.405       .  A
C855       C1483   1.482       .  S
C856        H857   1.084       .  S
Zr859       O861   2.429       .  S
Zr859       O865   2.390       .  S
Zr859       O868   2.390       .  S
Zr859       O870   2.406       .  S
O860        H916   0.990       .  S
O860        H924   0.990       .  S
O861        C881   1.283       .  A
O862        C883   1.288       .  A
O863       Zr873   2.447   1_655  S
O863        C882   1.287       .  A
O864       Zr872   2.472       .  S
O864        C883   1.291       .  A
O865        C882   1.279       .  A
O866       Zr874   2.430       .  S
O866        C881   1.284       .  A
O867       Zr872   2.384       .  S
O868       Zr873   2.397   1_655  S
O868       Zr874   2.369       .  S
O868        H903   0.965       .  S
O869       Zr872   2.394       .  S
O869       Zr889   2.396   1_655  S
O869        H906   0.966       .  S
O870       Zr873   2.406   1_655  S
Zr871       O890   2.432       .  S
Zr871       O886   2.419       .  S
Zr871       O878   2.418       .  S
Zr871       O879   2.387       .  S
Zr872       O885   2.429   1_655  S
Zr872       O878   2.408   1_655  S
Zr872       O879   2.397   1_655  S
Zr872       O891   2.440       .  S
Zr872       O884   2.435       .  S
Zr873       O899   2.475       .  S
Zr873       O877   2.391       .  S
Zr873       O880   2.391       .  S
Zr873       O875   2.436       .  S
Zr873       O897   2.439       .  S
Zr874       O877   2.402   1_655  S
Zr874       O900   2.437       .  S
Zr874       O901   2.435   1_655  S
Zr874       O876   2.436       .  S
O875        H912   0.990       .  S
O876        H907   0.990       .  S
O876        H921   0.990       .  S
O878        H904   0.966       .  S
O879       Zr889   2.363       .  S
O880        H905   0.966       .  S
C881       C1453   1.474       .  S
C882       C1480   1.476       .  S
C883       C1463   1.501       .  S
O884        H920   0.990       .  S
O885        C887   1.284       .  A
O886        C887   1.283       .  A
C887       C1580   1.461       .  S
O888       Zr889   2.441   1_655  S
O888        H917   0.990       .  S
Zr889       O894   2.425       .  S
Zr889       O892   2.440       .  S
Zr889       O893   2.438       .  S
O890        C895   1.285       .  A
O891        H908   0.990       .  S
O891        H923   0.990       .  S
O892        H909   0.990       .  S
O893        H913   0.990       .  S
O893        H922   0.990       .  S
O894        C895   1.283       .  A
C895       C1540   1.487       .  S
O896        H915   0.990       .  S
O896        H919   0.990       .  S
O897        H911   0.990       .  S
O897        H918   0.990       .  S
O898        C902   1.290       .  A
O899        C902   1.293       .  A
O900        H910   0.990       .  S
O901        H914   0.990       .  S
C902       C1590   1.507       .  S
Zr925       O927   2.421       .  S
Zr925       O928   2.474       .  S
Zr925       O931   2.406       .  S
Zr925       O933   2.371       .  S
Zr925       O934   2.391       .  S
Zr925       O935   2.394       .  S
Zr925       O936   2.407       .  S
Zr925       O926   2.436       .  S
O926        H982   0.990       .  S
O926        H990   0.990       .  S
O927        C947   1.281       .  A
O928        C949   1.292       .  A
O929       Zr939   2.447   1_455  S
O929        C948   1.288       .  A
O930       Zr938   2.444       .  S
O930        C949   1.287       .  A
O931        C948   1.282       .  A
O932       Zr940   2.419       .  S
O932        C947   1.282       .  A
O933       Zr938   2.381       .  S
O933       Zr940   2.378       .  S
O934       Zr939   2.401   1_455  S
O934       Zr940   2.370       .  S
O934        H969   0.966       .  S
O935       Zr938   2.395       .  S
O935       Zr955   2.405   1_455  S
O935        H972   0.966       .  S
O936       Zr939   2.399   1_455  S
O936       Zr955   2.389   1_455  S
Zr937       O956   2.422       .  S
Zr937       O964   2.458       .  S
Zr937       O952   2.427       .  S
Zr937       O943   2.395       .  S
Zr937       O944   2.406       .  S
Zr937       O945   2.381       .  S
Zr937       O946   2.381       .  S
Zr937       O962   2.438       .  S
Zr938       O951   2.415   1_455  S
Zr938       O944   2.399   1_455  S
Zr938       O945   2.389   1_455  S
Zr938       O957   2.440       .  S
Zr938       O950   2.436       .  S
Zr939       O965   2.475       .  S
Zr939       O943   2.394       .  S
Zr939       O946   2.386       .  S
Zr939       O941   2.437       .  S
Zr939       O963   2.438       .  S
Zr940       O943   2.401   1_455  S
Zr940       O944   2.391   1_455  S
Zr940       O966   2.434       .  S
Zr940       O967   2.435       .  S
Zr940       O942   2.437       .  S
O941        H978   0.990       .  S
O942        H973   0.991       .  S
O942        H987   0.990       .  S
O944        H970   0.966       .  S
O945       Zr955   2.364       .  S
O946       Zr955   2.384       .  S
O946        H971   0.965       .  S
C947       C1523   1.471       .  S
C948       C1570   1.484       .  S
C949       C1600   1.511       .  S
O950        H986   0.990       .  S
O951        C953   1.281       .  A
O952        C953   1.285       .  A
C953       C1473   1.459       .  S
O954       Zr955   2.436   1_455  S
O954        H983   0.990       .  S
Zr955       O960   2.434       .  S
Zr955       O958   2.435       .  S
Zr955       O959   2.441       .  S
O956        C961   1.283       .  A
O957        H974   0.990       .  S
O957        H989   0.990       .  S
O958        H975   0.990       .  S
O959        H979   0.990       .  S
O959        H988   0.990       .  S
O960        C961   1.286       .  A
C961       C1430   1.487       .  S
O962        H981   0.990       .  S
O962        H985   0.990       .  S
O963        H977   0.990       .  S
O963        H984   0.990   1_655  S
O964        C968   1.290       .  A
O965        C968   1.294       .  A
O966        H976   0.990       .  S
O967        H980   0.989   1_455  S
C968       C1440   1.517       .  S
C991        C992   1.416       .  A
C991        C996   1.401       .  A
C991       C1450   1.481       .  S
C992        C993   1.402       .  A
C992       C1433   1.480       .  S
C993        C994   1.401       .  A
C993        H998   1.085       .  S
C994        C995   1.411       .  A
C994       C1413   1.476       .  S
C995        C996   1.399       .  A
C995       C1423   1.475       .  S
C996        H997   1.085       .  S
C999       C1000   1.414       .  A
C999       C1004   1.405       .  A
C999       C1390   1.487       .  S
C1000      C1001   1.396       .  A
C1000      C1400   1.466       .  S
C1001      C1002   1.391       .  A
C1001      H1006   1.086       .  S
C1002      C1003   1.408       .  A
C1002      C1373   1.471       .  S
C1003      C1004   1.401       .  A
C1003      C1383   1.474       .  S
C1004      H1005   1.084       .  S
C1007      C1008   1.416       .  A
C1007      C1012   1.396       .  A
C1007      C1360   1.469       .  S
C1008      C1009   1.410       .  A
C1008      C1343   1.494       .  S
C1009      C1010   1.403       .  A
C1009      H1014   1.083       .  S
C1010      C1011   1.409       .  A
C1010      C1330   1.483       .  S
C1011      C1012   1.394       .  A
C1011      C1350   1.471       .  S
C1012      H1013   1.086       .  S
Zr1015     O1017   2.442       .  S
Zr1015     O1018   2.470       .  S
Zr1015     O1021   2.420       .  S
Zr1015     O1023   2.378       .  S
Zr1015     O1024   2.395       .  S
Zr1015     O1025   2.403       .  S
Zr1015     O1026   2.408       .  S
Zr1015     O1016   2.443       .  S
O1016      H1072   0.990       .  S
O1016      H1080   0.990       .  S
O1017      C1037   1.284       .  A
O1018      C1039   1.290       .  A
O1019     Zr1029   2.425   1_545  S
O1019      C1038   1.282       .  A
O1020     Zr1028   2.470       .  S
O1020      C1039   1.291       .  A
O1021      C1038   1.281       .  A
O1022     Zr1030   2.410       .  S
O1022      C1037   1.280       .  A
O1023     Zr1028   2.391       .  S
O1023     Zr1030   2.381       .  S
O1024     Zr1029   2.407   1_545  S
O1024     Zr1030   2.368       .  S
O1024      H1059   0.966       .  S
O1025     Zr1028   2.404       .  S
O1025     Zr1045   2.398   1_545  S
O1025      H1062   0.966       .  S
O1026     Zr1029   2.407   1_545  S
O1026     Zr1045   2.383   1_545  S
Zr1027     O1046   2.435       .  S
Zr1027     O1054   2.457       .  S
Zr1027     O1042   2.395       .  S
Zr1027     O1033   2.387       .  S
Zr1027     O1034   2.409       .  S
Zr1027     O1035   2.385       .  S
Zr1027     O1036   2.375       .  S
Zr1027     O1052   2.443       .  S
Zr1028     O1041   2.453   1_545  S
Zr1028     O1034   2.407   1_545  S
Zr1028     O1035   2.394   1_545  S
Zr1028     O1047   2.438       .  S
Zr1028     O1040   2.434       .  S
Zr1029     O1055   2.477       .  S
Zr1029     O1033   2.383       .  S
Zr1029     O1036   2.386       .  S
Zr1029     O1031   2.435       .  S
Zr1029     O1053   2.437       .  S
Zr1030     O1033   2.398   1_545  S
Zr1030     O1034   2.384   1_545  S
Zr1030     O1056   2.436       .  S
Zr1030     O1057   2.435   1_545  S
Zr1030     O1032   2.435       .  S
O1031      H1068   0.990       .  S
O1032      H1063   0.990       .  S
O1032      H1077   0.990       .  S
O1034      H1060   0.966       .  S
O1035     Zr1045   2.366       .  S
O1036     Zr1045   2.385       .  S
O1036      H1061   0.966       .  S
C1037      C1410   1.472       .  S
C1038      C1393   1.470       .  S
C1039      C1323   1.509       .  S
O1040      H1076   0.990       .  S
O1041      C1043   1.288       .  A
O1042      C1043   1.281       .  A
C1043      C1340   1.484       .  S
O1044     Zr1045   2.436   1_545  S
O1044      H1073   0.990       .  S
Zr1045     O1050   2.413       .  S
Zr1045     O1048   2.436       .  S
Zr1045     O1049   2.437       .  S
O1046      C1051   1.285       .  A
O1047      H1064   0.990       .  S
O1047      H1079   0.990       .  S
O1048      H1065   0.991       .  S
O1049      H1069   0.991       .  S
O1049      H1078   0.989       .  S
O1050      C1051   1.281       .  A
C1051      C1513   1.486       .  S
O1052      H1071   0.990       .  S
O1052      H1075   0.990       .  S
O1053      H1067   0.990       .  S
O1053      H1074   0.990   1_565  S
O1054      C1058   1.290       .  A
O1055      C1058   1.293       .  A
O1056      H1066   0.990       .  S
O1057      H1070   0.990       .  S
C1058      C1643   1.517       .  S
Zr1081     O1083   2.438       .  S
Zr1081     O1084   2.494       .  S
Zr1081     O1087   2.464       .  S
Zr1081     O1089   2.392       .  S
Zr1081     O1090   2.416       .  S
Zr1081     O1091   2.411       .  S
Zr1081     O1092   2.387       .  S
Zr1081     O1082   2.441       .  S
O1082      H1138   0.990       .  S
O1082      H1146   0.990       .  S
O1083      C1103   1.280       .  A
O1084      C1105   1.296       .  A
O1085     Zr1095   2.427       .  S
O1085      C1104   1.284       .  A
O1086     Zr1094   2.471       .  S
O1086      C1105   1.292       .  A
O1087      C1104   1.293       .  A
O1088     Zr1096   2.391       .  S
O1088      C1103   1.271       .  A
O1089     Zr1094   2.393       .  S
O1089     Zr1096   2.390       .  S
O1090     Zr1095   2.395       .  S
O1090     Zr1096   2.381       .  S
O1090      H1125   0.965       .  S
O1091     Zr1094   2.400       .  S
O1091     Zr1111   2.379       .  S
O1091      H1128   0.964       .  S
O1092     Zr1095   2.394       .  S
O1092     Zr1111   2.357       .  S
Zr1093     O1112   2.446       .  S
Zr1093     O1120   2.480       .  S
Zr1093     O1108   2.437       .  S
Zr1093     O1099   2.392       .  S
Zr1093     O1100   2.420       .  S
Zr1093     O1101   2.395       .  S
Zr1093     O1102   2.376       .  S
Zr1093     O1118   2.437       .  S
Zr1094     O1107   2.440       .  S
Zr1094     O1100   2.419       .  S
Zr1094     O1101   2.406       .  S
Zr1094     O1113   2.436       .  S
Zr1094     O1106   2.435       .  S
Zr1095     O1121   2.457       .  S
Zr1095     O1099   2.380       .  S
Zr1095     O1102   2.388       .  S
Zr1095     O1097   2.435       .  S
Zr1095     O1119   2.435       .  S
Zr1096     O1099   2.390       .  S
Zr1096     O1100   2.374       .  S
Zr1096     O1122   2.437       .  S
Zr1096     O1123   2.437       .  S
Zr1096     O1098   2.437       .  S
O1097      H1134   0.990       .  S
O1098      H1129   0.990       .  S
O1098      H1143   0.990       .  S
O1100      H1126   0.965       .  S
O1101     Zr1111   2.383       .  S
O1102     Zr1111   2.389       .  S
O1102      H1127   0.966       .  S
C1103      C1553   1.475       .  S
C1104      C1333   1.487       .  S
C1105      C1623   1.512       .  S
O1106      H1142   0.990       .  S
O1107      C1109   1.287       .  A
O1108      C1109   1.285       .  A
C1109      C1380   1.486       .  S
O1110     Zr1111   2.439       .  S
O1110      H1139   0.991       .  S
Zr1111     O1116   2.366       .  S
Zr1111     O1114   2.438       .  S
Zr1111     O1115   2.438       .  S
O1112      C1117   1.285       .  A
O1113      H1130   0.990       .  S
O1113      H1145   0.990       .  S
O1114      H1131   0.990       .  S
O1115      H1135   0.990       .  S
O1115      H1144   0.990       .  S
O1116      C1117   1.272       .  A
C1117      C1493   1.466       .  S
O1118      H1137   0.990       .  S
O1118      H1141   0.990       .  S
O1119      H1133   0.990       .  S
O1119      H1140   0.989       .  S
O1120      C1124   1.292       .  A
O1121      C1124   1.289       .  A
O1122      H1132   0.990       .  S
O1123      H1136   0.990       .  S
C1124      C1313   1.516       .  S
Zr1147     O1149   2.408       .  S
Zr1147     O1153   2.429       .  S
Zr1147     O1156   2.395       .  S
Zr1147     O1158   2.412       .  S
O1148      H1204   0.990       .  S
O1148      H1212   0.990       .  S
O1149      C1169   1.279       .  A
O1150      C1171   1.292       .  A
O1151     Zr1161   2.415   1_565  S
O1151      C1170   1.281       .  A
O1152     Zr1160   2.450       .  S
O1152      C1171   1.287       .  A
O1153      C1170   1.286       .  A
O1154     Zr1162   2.427       .  S
O1154      C1169   1.284       .  A
O1155     Zr1160   2.381       .  S
O1156     Zr1161   2.393   1_565  S
O1156     Zr1162   2.364       .  S
O1156      H1191   0.965       .  S
O1157     Zr1160   2.390       .  S
O1157     Zr1177   2.400   1_565  S
O1157      H1194   0.966       .  S
O1158     Zr1161   2.406   1_565  S
Zr1159     O1178   2.419       .  S
Zr1159     O1174   2.424       .  S
Zr1159     O1166   2.418   1_545  S
Zr1159     O1167   2.386       .  S
Zr1160     O1173   2.407   1_565  S
Zr1160     O1166   2.409       .  S
Zr1160     O1167   2.392   1_565  S
Zr1160     O1179   2.438       .  S
Zr1160     O1172   2.435       .  S
Zr1161     O1187   2.457       .  S
Zr1161     O1165   2.388       .  S
Zr1161     O1168   2.377       .  S
Zr1161     O1163   2.436       .  S
Zr1161     O1185   2.439       .  S
Zr1162     O1165   2.409   1_565  S
Zr1162     O1188   2.436       .  S
Zr1162     O1189   2.435       .  S
Zr1162     O1164   2.438       .  S
O1163      H1200   0.990       .  S
O1164      H1195   0.990       .  S
O1164      H1209   0.990       .  S
O1166      H1192   0.966   1_565  S
O1167     Zr1177   2.361       .  S
O1168      H1193   0.967       .  S
C1169      C1533   1.461       .  S
C1170      C1363   1.454       .  S
C1171      C1633   1.496       .  S
O1172      H1208   0.990       .  S
O1173      C1175   1.279       .  A
O1174      C1175   1.284       .  A
C1175      C1403   1.449       .  S
O1176     Zr1177   2.440   1_565  S
O1176      H1205   0.990   1_565  S
Zr1177     O1182   2.429       .  S
Zr1177     O1180   2.439       .  S
Zr1177     O1181   2.438       .  S
O1178      C1183   1.283       .  A
O1179      H1196   0.990       .  S
O1179      H1211   0.990       .  S
O1180      H1197   0.990       .  S
O1181      H1201   0.990       .  S
O1181      H1210   0.990       .  S
O1182      C1183   1.284       .  A
C1183      C1420   1.485       .  S
O1184      H1203   0.990       .  S
O1184      H1207   0.990       .  S
O1185      H1199   0.990       .  S
O1185      H1206   0.990   1_545  S
O1186      C1190   1.295       .  A
O1187      C1190   1.289       .  A
O1188      H1198   0.990       .  S
O1189      H1202   0.990   1_565  S
C1190      C1300   1.523       .  S
Zr1213     O1215   2.445       .  S
Zr1213     O1219   2.453       .  S
Zr1213     O1222   2.415       .  S
Zr1213     O1224   2.399       .  S
O1214      H1278   0.991       .  S
O1215      C1235   1.281       .  A
O1216      C1237   1.292       .  A
O1217     Zr1227   2.452       .  S
O1217      C1236   1.289       .  A
O1218     Zr1226   2.460       .  S
O1218      C1237   1.290       .  A
O1219      C1236   1.289       .  A
O1220     Zr1228   2.388       .  S
O1220      C1235   1.268       .  A
O1221     Zr1226   2.388       .  S
O1222     Zr1227   2.398       .  S
O1222     Zr1228   2.391       .  S
O1222      H1257   0.966       .  S
O1223     Zr1226   2.396       .  S
O1223     Zr1243   2.391       .  S
O1223      H1260   0.965       .  S
O1224     Zr1227   2.389       .  S
Zr1225     O1244   2.433       .  S
Zr1225     O1240   2.451       .  S
Zr1225     O1232   2.406       .  S
Zr1225     O1233   2.392       .  S
Zr1226     O1239   2.429       .  S
Zr1226     O1232   2.416       .  S
Zr1226     O1233   2.399       .  S
Zr1226     O1245   2.435       .  S
Zr1226     O1238   2.435       .  S
Zr1227     O1253   2.465       .  S
Zr1227     O1231   2.383       .  S
Zr1227     O1234   2.395       .  S
Zr1227     O1229   2.435       .  S
Zr1227     O1251   2.437       .  S
Zr1228     O1231   2.386       .  S
Zr1228     O1254   2.435       .  S
Zr1228     O1255   2.437       .  S
Zr1228     O1230   2.439       .  S
O1229      H1266   0.990       .  S
O1230      H1261   0.989       .  S
O1230      H1275   0.990   1_556  S
O1232      H1258   0.965       .  S
O1233     Zr1243   2.378       .  S
O1234      H1259   0.966       .  S
C1235      C1353   1.475       .  S
C1236      C1560   1.493       .  S
C1237      C1613   1.513       .  S
O1238      H1274   0.990       .  S
O1239      C1241   1.285       .  A
O1240      C1241   1.288       .  A
C1241      C1500   1.487       .  S
O1242     Zr1243   2.438       .  S
O1242      H1271   0.990       .  S
Zr1243     O1248   2.375       .  S
Zr1243     O1246   2.439       .  S
Zr1243     O1247   2.440       .  S
O1244      C1249   1.283       .  A
O1245      H1262   0.990       .  S
O1245      H1277   0.990       .  S
O1246      H1263   0.990       .  S
O1247      H1267   0.990       .  S
O1247      H1276   0.990       .  S
O1248      C1249   1.274       .  A
C1249      C1370   1.460       .  S
O1250      H1269   0.990       .  S
O1251      H1265   0.990       .  S
O1251      H1272   0.990       .  S
O1252      C1256   1.290       .  A
O1253      C1256   1.290       .  A
O1254      H1264   0.990       .  S
O1255      H1268   0.991       .  S
C1256      C1293   1.510       .  S
C1279      H1280   1.110       .  S
C1279      C1285   1.553       .  S
C1279      C1284   1.555       .  S
C1279      C1283   1.551       .  S
C1281      H1282   1.110       .  S
C1281      C1287   1.560       .  S
C1281      C1286   1.559       .  S
C1281      C1288   1.557       .  S
C1283      C1286   1.382       .  D
C1283      C1303   1.517       .  S
C1284      C1287   1.389       .  D
C1284      C1290   1.511       .  S
C1285      C1288   1.381       .  D
C1285      C1460   1.504       .  S
C1286      C1320   1.506       .  S
C1287      C1310   1.523       .  S
C1288      C1443   1.517       .  S
C1289      C1290   1.408       .  A
C1289      C1294   1.408       .  A
C1289      H1296   1.083       .  S
C1290      C1291   1.410       .  A
C1291      C1292   1.409       .  A
C1291      F1298   1.357       .  S
C1292      C1293   1.412       .  A
C1292      H1297   1.083       .  S
C1293      C1294   1.414       .  A
C1294      F1295   1.357       .  S
C1299      C1300   1.414       .  A
C1299      C1304   1.417       .  A
C1299      H1306   1.083       .  S
C1300      C1301   1.418       .  A
C1301      C1302   1.409       .  A
C1301      F1308   1.357       .  S
C1302      C1303   1.405       .  A
C1302      H1307   1.081       .  S
C1303      C1304   1.412       .  A
C1304      F1305   1.357       .  S
C1309      C1310   1.411       .  A
C1309      C1314   1.410       .  A
C1309      H1316   1.083       .  S
C1310      C1311   1.413       .  A
C1311      C1312   1.415       .  A
C1311      F1318   1.357       .  S
C1312      C1313   1.412       .  A
C1312      H1317   1.083       .  S
C1313      C1314   1.413       .  A
C1314      F1315   1.357       .  S
C1319      C1320   1.405       .  A
C1319      C1324   1.411       .  A
C1319      H1326   1.083       .  S
C1320      C1321   1.408       .  A
C1321      C1322   1.412       .  A
C1321      F1328   1.357       .  S
C1322      C1323   1.410       .  A
C1322      H1327   1.083       .  S
C1323      C1324   1.414       .  A
C1324      F1325   1.356       .  S
C1329      C1330   1.400       .  A
C1329      C1334   1.400       .  A
C1329      H1336   1.083       .  S
C1330      C1331   1.405       .  A
C1331      C1332   1.394       .  A
C1331      F1338   1.355       .  S
C1332      C1333   1.404       .  A
C1332      H1337   1.083       .  S
C1333      C1334   1.416       .  A
C1334      F1335   1.357       .  S
C1339      C1340   1.405       .  A
C1339      C1344   1.380       .  A
C1339      H1346   1.083       .  S
C1340      C1341   1.409       .  A
C1341      C1342   1.407       .  A
C1341      F1348   1.357       .  S
C1342      C1343   1.412       .  A
C1342      H1347   1.083       .  S
C1343      C1344   1.407       .  A
C1344      F1345   1.354       .  S
C1349      C1350   1.396       .  A
C1349      C1354   1.389       .  A
C1349      H1356   1.084       .  S
C1350      C1351   1.406       .  A
C1351      C1352   1.396       .  A
C1351      F1358   1.356       .  S
C1352      C1353   1.404       .  A
C1352      H1357   1.083       .  S
C1353      C1354   1.413       .  A
C1354      F1355   1.356       .  S
C1359      C1360   1.404       .  A
C1359      C1364   1.398       .  A
C1359      H1366   1.083       .  S
C1360      C1361   1.404       .  A
C1361      C1362   1.390       .  A
C1361      F1368   1.358       .  S
C1362      C1363   1.398       .  A
C1362      H1367   1.084       .  S
C1363      C1364   1.401       .  A
C1364      F1365   1.357       .  S
C1369      C1370   1.404       .  A
C1369      C1374   1.386       .  A
C1369      H1376   1.084       .  S
C1370      C1371   1.402       .  A
C1371      C1372   1.395       .  A
C1371      F1378   1.357       .  S
C1372      C1373   1.405       .  A
C1372      H1377   1.082       .  S
C1373      C1374   1.401       .  A
C1374      F1375   1.358       .  S
C1379      C1380   1.410       .  A
C1379      C1384   1.401       .  A
C1379      H1386   1.083       .  S
C1380      C1381   1.413       .  A
C1381      C1382   1.389       .  A
C1381      F1388   1.356       .  S
C1382      C1383   1.397       .  A
C1382      H1387   1.084       .  S
C1383      C1384   1.402       .  A
C1384      F1385   1.357       .  S
C1389      C1390   1.409       .  A
C1389      C1394   1.401       .  A
C1389      H1396   1.083       .  S
C1390      C1391   1.407       .  A
C1391      C1392   1.386       .  A
C1391      F1398   1.358       .  S
C1392      C1393   1.401       .  A
C1392      H1397   1.082       .  S
C1393      C1394   1.406       .  A
C1394      F1395   1.358       .  S
C1399      C1400   1.402       .  A
C1399      C1404   1.392       .  A
C1399      H1406   1.084       .  S
C1400      C1401   1.404       .  A
C1401      C1402   1.392       .  A
C1401      F1408   1.357       .  S
C1402      C1403   1.397       .  A
C1402      H1407   1.083       .  S
C1403      C1404   1.402       .  A
C1404      F1405   1.359       .  S
C1409      C1410   1.402       .  A
C1409      C1414   1.389       .  A
C1409      H1416   1.084       .  S
C1410      C1411   1.408       .  A
C1411      C1412   1.404       .  A
C1411      F1418   1.356       .  S
C1412      C1413   1.403       .  A
C1412      H1417   1.083       .  S
C1413      C1414   1.404       .  A
C1414      F1415   1.358       .  S
C1419      C1420   1.410       .  A
C1419      C1424   1.398       .  A
C1419      H1426   1.083       .  S
C1420      C1421   1.411       .  A
C1421      C1422   1.394       .  A
C1421      F1428   1.357       .  S
C1422      C1423   1.401       .  A
C1422      H1427   1.083       .  S
C1423      C1424   1.400       .  A
C1424      F1425   1.357       .  S
C1429      C1430   1.411       .  A
C1429      C1434   1.401       .  A
C1429      H1436   1.083       .  S
C1430      C1431   1.410       .  A
C1431      C1432   1.392       .  A
C1431      F1438   1.357       .  S
C1432      C1433   1.402       .  A
C1432      H1437   1.082       .  S
C1433      C1434   1.404       .  A
C1434      F1435   1.358       .  S
C1439      C1440   1.415       .  A
C1439      C1444   1.413       .  A
C1439      H1446   1.083       .  S
C1440      C1441   1.414       .  A
C1441      C1442   1.410       .  A
C1441      F1448   1.357       .  S
C1442      C1443   1.409       .  A
C1442      H1447   1.081       .  S
C1443      C1444   1.410       .  A
C1444      F1445   1.358       .  S
C1449      C1450   1.401       .  A
C1449      C1454   1.401       .  A
C1449      H1456   1.083       .  S
C1450      C1451   1.408       .  A
C1451      C1452   1.395       .  A
C1451      F1458   1.358       .  S
C1452      C1453   1.401       .  A
C1452      H1457   1.083       .  S
C1453      C1454   1.409       .  A
C1454      F1455   1.356       .  S
C1459      C1460   1.407       .  A
C1459      C1464   1.410       .  A
C1459      H1466   1.083       .  S
C1460      C1461   1.408       .  A
C1461      C1462   1.409       .  A
C1461      F1468   1.358       .  S
C1462      C1463   1.409       .  A
C1462      H1467   1.083       .  S
C1463      C1464   1.410       .  A
C1464      F1465   1.357       .  S
C1469      C1470   1.402       .  A
C1469      C1474   1.399       .  A
C1469      H1476   1.083       .  S
C1470      C1471   1.404       .  A
C1471      C1472   1.390       .  A
C1471      F1478   1.358       .  S
C1472      C1473   1.398       .  A
C1472      H1477   1.084       .  S
C1473      C1474   1.405       .  A
C1474      F1475   1.357       .  S
C1479      C1480   1.405       .  A
C1479      C1484   1.383       .  A
C1479      H1486   1.083       .  S
C1480      C1481   1.407       .  A
C1481      C1482   1.402       .  A
C1481      F1488   1.357       .  S
C1482      C1483   1.407       .  A
C1482      H1487   1.083       .  S
C1483      C1484   1.406       .  A
C1484      F1485   1.358       .  S
C1489      C1490   1.396       .  A
C1489      C1494   1.389       .  A
C1489      H1496   1.084       .  S
C1490      C1491   1.406       .  A
C1491      C1492   1.394       .  A
C1491      F1498   1.357       .  S
C1492      C1493   1.401       .  A
C1492      H1497   1.083       .  S
C1493      C1494   1.411       .  A
C1494      F1495   1.359       .  S
C1499      C1500   1.412       .  A
C1499      C1504   1.401       .  A
C1499      H1506   1.083       .  S
C1500      C1501   1.409       .  A
C1501      C1502   1.395       .  A
C1501      F1508   1.358       .  S
C1502      C1503   1.403       .  A
C1502      H1507   1.083       .  S
C1503      C1504   1.400       .  A
C1504      F1505   1.357       .  S
C1509      C1510   1.405       .  A
C1509      C1514   1.403       .  A
C1509      H1516   1.083       .  S
C1510      C1511   1.402       .  A
C1511      C1512   1.391       .  A
C1511      F1518   1.357       .  S
C1512      C1513   1.408       .  A
C1512      H1517   1.083       .  S
C1513      C1514   1.411       .  A
C1514      F1515   1.357       .  S
C1519      C1520   1.399       .  A
C1519      C1524   1.397       .  A
C1519      H1526   1.083       .  S
C1520      C1521   1.404       .  A
C1521      C1522   1.392       .  A
C1521      F1528   1.358       .  S
C1522      C1523   1.402       .  A
C1522      H1527   1.084       .  S
C1523      C1524   1.409       .  A
C1524      F1525   1.356       .  S
C1529      C1530   1.405       .  A
C1529      C1534   1.388       .  A
C1529      H1536   1.084       .  S
C1530      C1531   1.403       .  A
C1531      C1532   1.399       .  A
C1531      F1538   1.357       .  S
C1532      C1533   1.406       .  A
C1532      H1537   1.083       .  S
C1533      C1534   1.399       .  A
C1534      F1535   1.358       .  S
C1539      C1540   1.410       .  A
C1539      C1544   1.402       .  A
C1539      H1546   1.083       .  S
C1540      C1541   1.411       .  A
C1541      C1542   1.393       .  A
C1541      F1548   1.357       .  S
C1542      C1543   1.401       .  A
C1542      H1547   1.083       .  S
C1543      C1544   1.403       .  A
C1544      F1545   1.357       .  S
C1549      C1550   1.406       .  A
C1549      C1554   1.395       .  A
C1549      H1556   1.083       .  S
C1550      C1551   1.398       .  A
C1551      C1552   1.390       .  A
C1551      F1558   1.357       .  S
C1552      C1553   1.408       .  A
C1552      H1557   1.083       .  S
C1553      C1554   1.407       .  A
C1554      F1555   1.358       .  S
C1559      C1560   1.410       .  A
C1559      C1564   1.401       .  A
C1559      H1566   1.083       .  S
C1560      C1561   1.412       .  A
C1561      C1562   1.398       .  A
C1561      F1568   1.356       .  S
C1562      C1563   1.404       .  A
C1562      H1567   1.083       .  S
C1563      C1564   1.405       .  A
C1564      F1565   1.357       .  S
C1569      C1570   1.410       .  A
C1569      C1574   1.405       .  A
C1569      H1576   1.083       .  S
C1570      C1571   1.411       .  A
C1571      C1572   1.384       .  A
C1571      F1578   1.358       .  S
C1572      C1573   1.402       .  A
C1572      H1577   1.084       .  S
C1573      C1574   1.406       .  A
C1574      F1575   1.356       .  S
C1579      C1580   1.404       .  A
C1579      C1584   1.399       .  A
C1579      H1586   1.083       .  S
C1580      C1581   1.403       .  A
C1581      C1582   1.389       .  A
C1581      F1588   1.358       .  S
C1582      C1583   1.400       .  A
C1582      H1587   1.084       .  S
C1583      C1584   1.402       .  A
C1584      F1585   1.357       .  S
C1589      C1590   1.411       .  A
C1589      C1594   1.414       .  A
C1589      H1596   1.083       .  S
C1590      C1591   1.410       .  A
C1591      C1592   1.412       .  A
C1591      F1598   1.357       .  S
C1592      C1593   1.409       .  A
C1592      H1597   1.081       .  S
C1593      C1594   1.408       .  A
C1594      F1595   1.357       .  S
C1599      C1600   1.413       .  A
C1599      C1604   1.407       .  A
C1599      H1606   1.083       .  S
C1600      C1601   1.414       .  A
C1601      C1602   1.411       .  A
C1601      F1608   1.357       .  S
C1602      C1603   1.407       .  A
C1602      H1607   1.083       .  S
C1603      C1604   1.406       .  A
C1604      F1605   1.355       .  S
C1609      C1610   1.410       .  A
C1609      C1614   1.409       .  A
C1609      H1616   1.082       .  S
C1610      C1611   1.412       .  A
C1611      C1612   1.412       .  A
C1611      F1618   1.357       .  S
C1612      C1613   1.412       .  A
C1612      H1617   1.083       .  S
C1613      C1614   1.413       .  A
C1614      F1615   1.357       .  S
C1619      C1620   1.411       .  A
C1619      C1624   1.416       .  A
C1619      H1626   1.083       .  S
C1620      C1621   1.409       .  A
C1621      C1622   1.411       .  A
C1621      F1628   1.351       .  S
C1622      C1623   1.408       .  A
C1622      H1627   1.083       .  S
C1623      C1624   1.413       .  A
C1624      F1625   1.356       .  S
C1629      C1630   1.410       .  A
C1629      C1634   1.411       .  A
C1629      H1636   1.083       .  S
C1630      C1631   1.412       .  A
C1631      C1632   1.409       .  A
C1631      F1638   1.354       .  S
C1632      C1633   1.404       .  A
C1632      H1637   1.083       .  S
C1633      C1634   1.408       .  A
C1634      F1635   1.357       .  S
C1639      C1640   1.417       .  A
C1639      C1644   1.416       .  A
C1639      H1646   1.081       .  S
C1640      C1641   1.412       .  A
C1641      C1642   1.408       .  A
C1641      F1648   1.348       .  S
C1642      C1643   1.409       .  A
C1642      H1647   1.083       .  S
C1643      C1644   1.414       .  A
C1644      F1645   1.357       .  S
