geometry optimzed in LAMMPS
_audit_creation_date              2020-11-30 
_audit_creation_method            'lammps2cif' 
_symmetry_space_group_name_H-M    'P1' 
_symmetry_Int_Tables_number       1 
_symmetry_cell_setting            triclinic 
loop_ 
_symmetry_equiv_pos_as_xyz 
  x,y,z 
_cell_length_a                    24.62873264 
_cell_length_b                    24.55957605372703 
_cell_length_c                    17.994176134115236 
_cell_angle_alpha                 89.95919760493219 
_cell_angle_beta                  90.32422831691255 
_cell_angle_gamma                 89.70443167546144 
loop_ 
_atom_site_label 
_atom_site_type_symbol 
_atom_site_fract_x 
_atom_site_fract_y 
_atom_site_fract_z 
_atom_site_charge 
C1          C  0.24113759  0.15462372  0.34064097     0.00400
C2          C  0.20142580  0.20345753  0.35227452     0.00400
C3          C  0.29009153  0.19399715  0.34376189     0.00400
C4          C  0.25043402  0.24254254  0.35608226     0.00400
C5          C  0.23816367  0.16293570  0.25552852     0.00400
C6          C  0.19884263  0.21138925  0.26698767     0.00400
C7          C  0.28712562  0.20233949  0.25864751     0.00400
C8          C  0.24786064  0.25113383  0.27103230     0.00400
O9          O  0.05346325  0.26599851  0.99012097    -0.68800
O10         O  0.43480093  0.28209453  0.13262199    -0.69100
O11         O  0.05321257  0.25507190  0.13795416    -0.68900
O12         O  0.44171123  0.28538148  0.98316728    -0.68900
O13         O  0.44543573  0.19700997  0.98355023    -0.68900
O14         O  0.03297578  0.16909609  0.13547771    -0.68900
O15         O  0.44247916  0.19384221  0.13181187    -0.68900
O16         O  0.04766827  0.17773610  0.98818435    -0.69000
V17         V  0.99907666  0.26758713  0.06311178     1.35200
V18         V  0.49880772  0.20109106  0.06073310     1.35200
C19         C  0.07069105  0.22101339  0.96632421     0.80400
C20         C  0.41947309  0.23624134  0.15617896     0.80400
C21         C  0.06148101  0.20698375  0.16172370     0.80300
C22         C  0.42455938  0.24047358  0.95805321     0.80300
O23         O  0.21780024  0.38946577  0.13276127    -0.68800
O24         O  0.18985610  0.99822243  0.99644961    -0.69100
O25         O  0.21300508  0.38545299  0.98532750    -0.68900
O26         O  0.21065653  0.00755210  0.14149623    -0.68900
O27         O  0.29744960  0.00599242  0.12002128    -0.68900
O28         O  0.29851148  0.40627592  0.97854755    -0.68900
O29         O  0.27667965  0.99740045  0.97508776    -0.68900
O30         O  0.30374839  0.40857170  0.12618772    -0.69000
V31         V  0.20400384  0.44134023  0.05702777     1.35200
V32         V  0.28644456  0.46040786  0.05203416     1.35200
C33         C  0.26624082  0.38005870  0.15294048     0.80400
C34         C  0.22980640  0.01601758  0.96050519     0.80400
C35         C  0.25960376  0.37617209  0.95885578     0.80300
C36         C  0.25730434  0.02773635  0.15171430     0.80300
C37         C  0.27958648  0.33381938  0.20116876    -0.13500
C38         C  0.24074810  0.30657955  0.23619281    -0.28700
H39         H  0.32098915  0.32018553  0.20197927     0.15500
H40         H  0.20056814  0.32481183  0.23901247     0.16100
C41         C  0.37648239  0.23330879  0.21197359    -0.13500
C42         C  0.33441477  0.19931224  0.20583931    -0.28700
H43         H  0.37695609  0.26370767  0.25532451     0.15500
H44         H  0.33310741  0.17006560  0.16065369     0.16100
C45         C  0.14956038  0.22503446  0.21954620    -0.13500
C46         C  0.10527639  0.19393643  0.21551243    -0.28700
H47         H  0.15107364  0.26092901  0.18458958     0.15500
H48         H  0.10376155  0.15596248  0.24639354     0.16100
C49         C  0.22889768  0.11586906  0.20373030    -0.13500
C50         C  0.26567282  0.07566783  0.19896897    -0.28700
H51         H  0.19145997  0.11421181  0.17167941     0.16300
H52         H  0.30433569  0.07943994  0.22784254     0.16100
C53         C  0.24103220  0.33427115  0.41055126    -0.13500
C54         C  0.26370663  0.28512149  0.41306770    -0.28700
H55         H  0.20931863  0.34318186  0.37022054     0.15500
H56         H  0.29269060  0.27569858  0.45689547     0.16100
C57         C  0.34061699  0.18321774  0.38960521    -0.13500
C58         C  0.37781676  0.22197134  0.40199489    -0.28700
H59         H  0.34433186  0.14431340  0.41785008     0.15500
H60         H  0.37242023  0.26209443  0.37787492     0.16100
C61         C  0.12809611  0.24553953  0.43064264    -0.13500
C62         C  0.14905870  0.20232245  0.39486377    -0.28700
H63         H  0.14872506  0.28416077  0.43073632     0.15500
H64         H  0.12525019  0.16543395  0.39048539     0.16100
C65         C  0.21315825  0.08010198  0.42919043    -0.13500
C66         C  0.24675315  0.09924928  0.37715538    -0.28700
H67         H  0.17720562  0.10268018  0.44450682     0.15500
H68         H  0.28205242  0.07514345  0.36194137     0.16100
C69         C  0.25143348  0.14958801  0.85595016     0.00400
C70         C  0.20342221  0.19013200  0.86061732     0.00400
C71         C  0.29247207  0.19749028  0.85239819     0.00400
C72         C  0.24396887  0.23851539  0.85708846     0.00400
C73         C  0.24656579  0.14950168  0.77093556     0.00400
C74         C  0.19880419  0.19064858  0.77514029     0.00400
C75         C  0.28739879  0.19723287  0.76605487     0.00400
C76         C  0.23928080  0.23871793  0.77054353     0.00400
O77         O  0.05785133  0.28086885  0.50875994    -0.68800
O78         O  0.44521966  0.25938478  0.63020404    -0.69100
O79         O  0.04086743  0.26685552  0.65414276    -0.68900
O80         O  0.44694671  0.25594742  0.48124484    -0.68900
O81         O  0.43319806  0.16861169  0.48356681    -0.68900
O82         O  0.05698045  0.18177856  0.62898217    -0.68900
O83         O  0.43001956  0.17228432  0.63153367    -0.68900
O84         O  0.05571438  0.19470474  0.48176517    -0.69000
V85         V  0.99536295  0.26951449  0.56929524     1.35200
V86         V  0.48592544  0.16282894  0.56041850     1.35200
C87         C  0.07799806  0.24051372  0.47453006     0.80400
C88         C  0.41822508  0.21966832  0.65422425     0.80400
C89         C  0.06694765  0.22373407  0.66781905     0.80300
C90         C  0.42153501  0.21494421  0.45720478     0.80300
O91         O  0.22065519  0.39508549  0.63947227    -0.68800
O92         O  0.18947753  0.00893768  0.51210474    -0.69100
O93         O  0.21324804  0.40287468  0.49101025    -0.68900
O94         O  0.22421837  0.99912340  0.65165185    -0.68900
O95         O  0.30773176  0.00195109  0.61358705    -0.68900
O96         O  0.29955940  0.38363340  0.49300854    -0.68900
O97         O  0.27257200  0.00890657  0.47217825    -0.68900
O98         O  0.30883755  0.39241450  0.64104971    -0.69000
V99         V  0.22543216  0.45310176  0.56744074     1.35200
V100        V  0.30926682  0.44234284  0.56145182     1.35200
C101        C  0.26445940  0.37413972  0.66447335     0.80400
C102        C  0.22552678  0.03002362  0.47177289     0.80400
C103        C  0.25227549  0.37507335  0.46721944     0.80300
C104        C  0.27141626  0.01881883  0.65734323     0.80300
C105        C  0.26667684  0.32870000  0.71842616    -0.13500
C106        C  0.23020791  0.28851439  0.72154670    -0.28700
H107        H  0.30383535  0.32455861  0.75014246     0.15500
H108        H  0.19458138  0.29047293  0.68597557     0.16100
C109        C  0.37350991  0.22871489  0.70671166    -0.13500
C110        C  0.33294990  0.19299160  0.71116330    -0.28700
H111        H  0.37363184  0.26510709  0.74048395     0.15500
H112        H  0.33313391  0.15813664  0.67424297     0.16100
C113        C  0.14775126  0.18549419  0.72846370    -0.13500
C114        C  0.10995401  0.22457489  0.72497768    -0.28700
H115        H  0.14327673  0.15114680  0.69158559     0.15500
H116        H  0.11458668  0.26124610  0.75781392     0.16100
C117        C  0.24167770  0.09854679  0.72456777    -0.13500
C118        C  0.28210785  0.06348054  0.71022930    -0.28700
H119        H  0.20257772  0.09007523  0.69995383     0.16300
H120        H  0.32292591  0.07070669  0.73092007     0.16100
C121        C  0.26897356  0.33049453  0.90762061    -0.13500
C122        C  0.23682591  0.28668942  0.90816287    -0.28700
H123        H  0.30395273  0.33218064  0.87203304     0.15500
H124        H  0.20374615  0.28532270  0.94762084     0.16100
C125        C  0.34416029  0.19791017  0.89965113    -0.13500
C126        C  0.37953555  0.23944416  0.90261668    -0.28700
H127        H  0.35158595  0.16371004  0.93628323     0.15500
H128        H  0.37286248  0.27521853  0.86878238     0.16100
C129        C  0.11639299  0.22165067  0.91406679    -0.13500
C130        C  0.15528025  0.18348953  0.91174327    -0.28700
H131        H  0.12153733  0.25858661  0.88191403     0.15500
H132        H  0.15309334  0.14822804  0.94792602     0.16100
C133        C  0.22219249  0.06029639  0.90668744    -0.13500
C134        C  0.25973922  0.09920127  0.90192806    -0.28700
H135        H  0.18354102  0.06474639  0.87787485     0.15500
H136        H  0.29664493  0.09515922  0.93445777     0.16100
C137        C  0.24626548  0.65205533  0.35295712     0.00400
C138        C  0.19937124  0.69461287  0.35591346     0.00400
C139        C  0.28853750  0.69868114  0.35810846     0.00400
C140        C  0.24163526  0.74122973  0.36117601     0.00400
C141        C  0.24804571  0.65616378  0.26731429     0.00400
C142        C  0.20066319  0.69770430  0.27022710     0.00400
C143        C  0.28935441  0.70351788  0.27226131     0.00400
C144        C  0.24178617  0.74496343  0.27531242     0.00400
O145        O  0.04477189  0.75753010  0.98018210    -0.68800
O146        O  0.43303017  0.75140437  0.14264994    -0.69100
O147        O  0.04569677  0.76162308  0.12959720    -0.68900
O148        O  0.43824148  0.76840579  0.99489060    -0.68900
O149        O  0.44694221  0.68052256  0.98589026    -0.68900
O150        O  0.05940376  0.67419636  0.13543391    -0.68900
O151        O  0.45405169  0.66564308  0.13418239    -0.68900
O152        O  0.06292185  0.67102625  0.98767392    -0.69000
V153        V  0.99195177  0.74816509  0.05572971     1.35200
V154        V  0.50386686  0.68412176  0.05835754     1.35200
C155        C  0.07328931  0.71732537  0.96017000     0.80400
C156        C  0.42486313  0.70238645  0.16241044     0.80400
C157        C  0.07082547  0.72154610  0.15754901     0.80300
C158        C  0.42459076  0.72448646  0.96433844     0.80300
O159        O  0.21189147  0.89714822  0.15356437    -0.68800
O160        O  0.18710115  0.49265954  0.98053435    -0.69100
O161        O  0.19109799  0.88965718  0.00724605    -0.68900
O162        O  0.19176416  0.49590164  0.13004986    -0.68900
O163        O  0.27760209  0.51554348  0.12527897    -0.68900
O164        O  0.27809874  0.88775084  0.98744249    -0.68900
O165        O  0.27294234  0.51214942  0.97730551    -0.68900
O166        O  0.29883836  0.89746189  0.13330221    -0.69000
V167        V  0.20257867  0.94799314  0.07465883     1.35200
V168        V  0.28600912  0.94707333  0.05416737     1.35200
C169        C  0.25899055  0.87961265  0.16949425     0.80400
C170        C  0.22523522  0.52062229  0.95377971     0.80400
C171        C  0.23135676  0.86871520  0.97464416     0.80300
C172        C  0.23101008  0.52472669  0.15205038     0.80300
C173        C  0.26719933  0.83684336  0.22583342    -0.13500
C174        C  0.23271121  0.79505791  0.22827424    -0.28700
H175        H  0.30443743  0.83587788  0.25845144     0.15500
H176        H  0.19791794  0.79557754  0.19113453     0.16100
C177        C  0.38154931  0.68707540  0.21545140    -0.13500
C178        C  0.33693970  0.71777495  0.22288796    -0.28700
H179        H  0.38439652  0.64834002  0.24442865     0.15500
H180        H  0.33407326  0.75481779  0.19035239     0.16100
C181        C  0.15337009  0.69207283  0.21862964    -0.13500
C182        C  0.11375586  0.72927321  0.21303439    -0.28700
H183        H  0.15297861  0.65680356  0.18235068     0.15500
H184        H  0.11492490  0.76648386  0.24546655     0.16100
C185        C  0.25710850  0.60964719  0.21429348    -0.13500
C186        C  0.22202875  0.56847009  0.20695161    -0.28700
H187        H  0.29334046  0.61057321  0.18024216     0.16300
H188        H  0.18486805  0.56841838  0.23920328     0.16100
C189        C  0.21411342  0.83331532  0.40869905    -0.13500
C190        C  0.24677386  0.78952586  0.41189700    -0.28700
H191        H  0.17917024  0.83452790  0.37185978     0.15500
H192        H  0.28093667  0.78960818  0.45038373     0.16100
C193        C  0.33769783  0.69099141  0.40693847    -0.13500
C194        C  0.37886941  0.72623029  0.40951967    -0.28700
H195        H  0.33970165  0.65442788  0.44072060     0.15500
H196        H  0.37664682  0.76394347  0.37802781     0.16100
C197        C  0.11205431  0.72942390  0.40930965    -0.13500
C198        C  0.14864104  0.68938447  0.40317693    -0.28700
H199        H  0.11766328  0.76686578  0.37867825     0.15500
H200        H  0.14270680  0.65367199  0.43712978     0.16100
C201        C  0.27942328  0.56276447  0.40606051    -0.13500
C202        C  0.24148260  0.60139531  0.40017668    -0.28700
H203        H  0.31669771  0.56587417  0.37438207     0.15500
H204        H  0.20592776  0.59691525  0.43418777     0.16100
C205        C  0.25066125  0.65137677  0.84363383     0.00400
C206        C  0.20857210  0.69788584  0.85427985     0.00400
C207        C  0.29773710  0.69264758  0.84857059     0.00400
C208        C  0.25558361  0.73921141  0.85931570     0.00400
C209        C  0.24842955  0.65907599  0.75884253     0.00400
C210        C  0.20648641  0.70586139  0.76882553     0.00400
C211        C  0.29572599  0.70044454  0.76348805     0.00400
C212        C  0.25396358  0.74740892  0.77391431     0.00400
O213        O  0.05405984  0.77200540  0.49541757    -0.68800
O214        O  0.45662223  0.75570986  0.63096406    -0.69100
O215        O  0.06195179  0.75414532  0.64260911    -0.68900
O216        O  0.45421879  0.75532660  0.48179806    -0.68900
O217        O  0.43668108  0.66871041  0.48303518    -0.68900
O218        O  0.04033766  0.66866662  0.63494983    -0.68900
O219        O  0.43888593  0.66909579  0.63099847    -0.68900
O220        O  0.04660912  0.68409036  0.48721161    -0.69000
V221        V  0.00406806  0.77072211  0.57464778     1.35200
V222        V  0.49189812  0.65904340  0.55626528     1.35200
C223        C  0.06878017  0.72796685  0.46578593     0.80400
C224        C  0.42956452  0.71631502  0.65605729     0.80400
C225        C  0.07025757  0.70499630  0.66208516     0.80300
C226        C  0.42558677  0.71613896  0.45942411     0.80300
O227        O  0.22324715  0.89008916  0.63958704    -0.68800
O228        O  0.22907154  0.50998784  0.49507667    -0.69100
O229        O  0.18835974  0.89907459  0.49889968    -0.68900
O230        O  0.23252181  0.50557395  0.64300710    -0.68900
O231        O  0.32009685  0.50127163  0.62954787    -0.68900
O232        O  0.27273907  0.89840559  0.46396700    -0.68900
O233        O  0.31475156  0.49153709  0.48093846    -0.68900
O234        O  0.30728752  0.89222459  0.60348740    -0.69000
V235        V  0.20797571  0.94929879  0.57475509     1.35200
V236        V  0.28843734  0.95048200  0.53880645     1.35200
C237        C  0.27081287  0.87051306  0.64246105     0.80400
C238        C  0.27375949  0.51922259  0.46235088     0.80400
C239        C  0.22518431  0.87963878  0.45807165     0.80300
C240        C  0.27886612  0.52398337  0.65832941     0.80300
C241        C  0.28313550  0.82138911  0.68634139    -0.13500
C242        C  0.24932992  0.80307344  0.73856201    -0.28700
H243        H  0.31858471  0.79833345  0.67088613     0.15500
H244        H  0.21430915  0.82760440  0.75378946     0.16100
C245        C  0.38687863  0.72533903  0.71162564    -0.13500
C246        C  0.34255515  0.69411815  0.71072228    -0.28700
H247        H  0.38969199  0.75985161  0.74896245     0.15500
H248        H  0.33959710  0.66235390  0.66906702     0.16100
C249        C  0.15812341  0.72074885  0.72118239    -0.13500
C250        C  0.11477748  0.68906052  0.71304202    -0.28700
H251        H  0.15906094  0.75911421  0.69130943     0.15500
H252        H  0.11384674  0.64943774  0.73989167     0.16100
C253        C  0.24446909  0.61052711  0.70808544    -0.13500
C254        C  0.28378535  0.57203460  0.70661965    -0.28700
H255        H  0.20857754  0.60676433  0.67316993     0.16300
H256        H  0.32068513  0.57717150  0.73917056     0.16100
C257        C  0.22369249  0.82348169  0.92233658    -0.13500
C258        C  0.26129601  0.78437094  0.91524395    -0.28700
H259        H  0.18651065  0.82202777  0.88995321     0.15500
H260        H  0.29691374  0.78506962  0.95088474     0.16100
C261        C  0.34786395  0.68551980  0.89640933    -0.13500
C262        C  0.38276715  0.72619668  0.90603076    -0.28700
H263        H  0.35344326  0.64890566  0.92908876     0.15500
H264        H  0.37582702  0.76462323  0.87756875     0.16100
C265        C  0.11838920  0.72517244  0.90734508    -0.13500
C266        C  0.16091823  0.69092181  0.90585963    -0.28700
H267        H  0.11755576  0.76054977  0.87122804     0.15500
H268        H  0.16148552  0.65642587  0.94345193     0.16100
C269        C  0.21501964  0.56470865  0.89976981    -0.13500
C270        C  0.25622916  0.59767490  0.88258749    -0.28700
H271        H  0.17398795  0.57337819  0.88069020     0.15500
H272        H  0.29656588  0.58681302  0.90142989     0.16100
C273        C  0.74531297  0.17085990  0.36249090     0.00400
C274        C  0.70212641  0.21648187  0.36372950     0.00400
C275        C  0.79144911  0.21365768  0.35458853     0.00400
C276        C  0.74769690  0.25991683  0.35671027     0.00400
C277        C  0.74049771  0.16732030  0.27743512     0.00400
C278        C  0.69691587  0.21318880  0.27860855     0.00400
C279        C  0.78565932  0.21050033  0.26834992     0.00400
C280        C  0.74185563  0.25652989  0.27052072     0.00400
O281        O  0.55135700  0.29282313  0.99646415    -0.68800
O282        O  0.94490938  0.27384708  0.13683985    -0.69100
O283        O  0.54279090  0.29011230  0.14432005    -0.68900
O284        O  0.94600716  0.28182908  0.98726805    -0.68900
O285        O  0.93938885  0.19437249  0.97160202    -0.68900
O286        O  0.55190335  0.20222095  0.13837674    -0.68900
O287        O  0.92548691  0.18863748  0.11907257    -0.68900
O288        O  0.55580320  0.20458617  0.98965950    -0.69000
V289        V  0.49261198  0.28585069  0.06368233     1.35200
V290        V  0.98655005  0.18402453  0.05367907     1.35200
C291        C  0.57464765  0.25059743  0.97188535     0.80400
C292        C  0.91527122  0.23355631  0.15119190     0.80400
C293        C  0.56558682  0.24714963  0.16757669     0.80300
C294        C  0.92505013  0.24191387  0.95310976     0.80300
O295        O  0.72156404  0.40216101  0.13186502    -0.68800
O296        O  0.69015831  0.02912259  0.00898912    -0.69100
O297        O  0.73172328  0.41045181  0.98538603    -0.68900
O298        O  0.71671332  0.01822847  0.15196983    -0.68900
O299        O  0.80156432  0.02271262  0.12006260    -0.68900
O300        O  0.81749489  0.40613205  0.01417552    -0.68900
O301        O  0.77471619  0.02722886  0.97523499    -0.68900
O302        O  0.80563855  0.42055859  0.15902198    -0.69000
V303        V  0.72306720  0.46120827  0.06255553     1.35200
V304        V  0.80655155  0.46768598  0.07677117     1.35200
C305        C  0.76428085  0.39182422  0.16929887     0.80400
C306        C  0.72821170  0.04938648  0.97141638     0.80400
C307        C  0.77708238  0.38709883  0.97907297     0.80300
C308        C  0.76350475  0.03812197  0.16189121     0.80300
C309        C  0.76866690  0.34603795  0.22109742    -0.13500
C310        C  0.73437666  0.30438723  0.21957925    -0.28700
H311        H  0.80388304  0.34447608  0.25723831     0.15500
H312        H  0.70002423  0.30513299  0.18160992     0.16100
C313        C  0.87038652  0.24034535  0.20468263    -0.13500
C314        C  0.83072324  0.20384426  0.21223236    -0.28700
H315        H  0.86952911  0.27717798  0.23769167     0.15500
H316        H  0.83064827  0.16839373  0.17649589     0.16100
C317        C  0.64542862  0.20969389  0.23195666    -0.13500
C318        C  0.60901937  0.25014304  0.22493532    -0.28700
H319        H  0.63947993  0.17405286  0.19786897     0.15500
H320        H  0.61460294  0.28772664  0.25576154     0.16100
C321        C  0.73257070  0.11540848  0.23411224    -0.13500
C322        C  0.77282200  0.08074160  0.21798016    -0.28700
H323        H  0.69296965  0.10745104  0.21053423     0.16300
H324        H  0.81366204  0.08778518  0.23870902     0.16100
C325        C  0.78924299  0.34602577  0.41053496    -0.13500
C326        C  0.74750593  0.31110248  0.40465649    -0.28700
H327        H  0.82611041  0.33897385  0.38000206     0.15500
H328        H  0.71224340  0.31874885  0.43874990     0.16100
C329        C  0.84368983  0.20628634  0.39960332    -0.13500
C330        C  0.88611243  0.24008101  0.39923693    -0.28700
H331        H  0.84687154  0.17197792  0.43686651     0.15500
H332        H  0.88604597  0.27556751  0.36383048     0.16100
C333        C  0.61469884  0.18315358  0.41564786    -0.13500
C334        C  0.65417526  0.22050086  0.41452755    -0.28700
H335        H  0.61747091  0.14679561  0.38166424     0.15500
H336        H  0.65110685  0.25554400  0.45073780     0.16100
C337        C  0.71738545  0.08037709  0.41333831    -0.13500
C338        C  0.74855467  0.12458089  0.41661584    -0.28700
H339        H  0.68483986  0.07677926  0.37277796     0.15500
H340        H  0.77765818  0.12724955  0.46162298     0.16100
C341        C  0.74688807  0.17619386  0.84394789     0.00400
C342        C  0.70020531  0.21963105  0.84786665     0.00400
C343        C  0.79021414  0.22249442  0.84610586     0.00400
C344        C  0.74374991  0.26569427  0.85036426     0.00400
C345        C  0.74615254  0.17928845  0.75805060     0.00400
C346        C  0.69972292  0.22181131  0.76190907     0.00400
C347        C  0.78849455  0.22545693  0.76062259     0.00400
C348        C  0.74217983  0.26788207  0.76471736     0.00400
O349        O  0.55473483  0.23786168  0.48652601    -0.68800
O350        O  0.93338151  0.25939640  0.63102991    -0.69100
O351        O  0.55290945  0.24044326  0.63342441    -0.68900
O352        O  0.94958171  0.27666350  0.48475438    -0.68900
O353        O  0.94607585  0.18837857  0.47947032    -0.68900
O354        O  0.53830273  0.15331808  0.63760414    -0.68900
O355        O  0.94880774  0.17221094  0.62743216    -0.68900
O356        O  0.54133290  0.15047314  0.48884884    -0.69000
V357        V  0.49954644  0.24668228  0.55787238     1.35200
V358        V  0.00168657  0.18574613  0.55440342     1.35200
C359        C  0.56796558  0.19068951  0.46512101     0.80400
C360        C  0.92167383  0.21156303  0.65239973     0.80400
C361        C  0.56499330  0.19408534  0.65953996     0.80300
C362        C  0.92969988  0.23444298  0.45584947     0.80300
O363        O  0.73871086  0.41667024  0.63212431    -0.68800
O364        O  0.69034249  0.00739885  0.49141430    -0.69100
O365        O  0.74352374  0.41333207  0.48392827    -0.68900
O366        O  0.69307080  0.00957052  0.64032097    -0.68900
O367        O  0.77876280  0.03009976  0.63761701    -0.68900
O368        O  0.83166007  0.41198193  0.48915230    -0.68900
O369        O  0.77600513  0.02835167  0.49051176    -0.68900
O370        O  0.82686966  0.41523831  0.63886430    -0.69000
V371        V  0.74374723  0.46991395  0.55622131     1.35200
V372        V  0.82843601  0.46827516  0.56228944     1.35200
C373        C  0.78170339  0.39791344  0.66136508     0.80400
C374        C  0.72821990  0.03641158  0.46663281     0.80400
C375        C  0.78800229  0.39259885  0.46299302     0.80300
C376        C  0.73149087  0.03984813  0.66149944     0.80300
C377        C  0.77979953  0.35516677  0.71828252    -0.13500
C378        C  0.73926688  0.31912840  0.71857263    -0.28700
H379        H  0.81511996  0.34874033  0.75376460     0.15500
H380        H  0.70546783  0.32500112  0.68067098     0.16100
C381        C  0.87732198  0.20082102  0.70459229    -0.13500
C382        C  0.83539818  0.23492466  0.70926560    -0.28700
H383        H  0.87764904  0.16331034  0.73666449     0.15500
H384        H  0.83461002  0.27043228  0.67354126     0.16100
C385        C  0.64993172  0.22560104  0.71342101    -0.13500
C386        C  0.61116722  0.18758729  0.71130021    -0.28700
H387        H  0.64545326  0.26107220  0.67822379     0.15500
H388        H  0.61496596  0.15074862  0.74422403     0.16100
C389        C  0.75310350  0.13087669  0.70767385    -0.13500
C390        C  0.72107980  0.08688249  0.71047040    -0.28700
H391        H  0.78701228  0.13143085  0.66939845     0.16300
H392        H  0.68626855  0.08621775  0.74712770     0.16100
C393        C  0.78138800  0.33604836  0.93766700    -0.13500
C394        C  0.74209515  0.31918407  0.89141885    -0.28700
H395        H  0.81513007  0.31043355  0.95176811     0.15500
H396        H  0.70831376  0.34632616  0.87898705     0.16100
C397        C  0.84060262  0.21481395  0.89340298    -0.13500
C398        C  0.88242970  0.24972305  0.89597005    -0.28700
H399        H  0.84172884  0.17934152  0.92941064     0.15500
H400        H  0.88154278  0.28673515  0.86288579     0.16100
C401        C  0.62482274  0.25598489  0.92802974    -0.13500
C402        C  0.64693776  0.21483466  0.88937895    -0.28700
H403        H  0.64420596  0.29518088  0.92970340     0.15500
H404        H  0.62398776  0.17755942  0.88292723     0.16100
C405        C  0.71801323  0.09957551  0.92814598    -0.13500
C406        C  0.75511015  0.12214737  0.88359029    -0.28700
H407        H  0.67931974  0.11919584  0.93649240     0.15500
H408        H  0.79330418  0.10101525  0.87427919     0.16100
C409        C  0.75425761  0.67373752  0.35374910     0.00400
C410        C  0.70544691  0.71344513  0.34976511     0.00400
C411        C  0.79410660  0.72258090  0.35642859     0.00400
C412        C  0.74528076  0.76249653  0.35246101     0.00400
C413        C  0.75768261  0.67364426  0.26808419     0.00400
C414        C  0.70847842  0.71273877  0.26434648     0.00400
C415        C  0.79686054  0.72257908  0.27034839     0.00400
C416        C  0.74740530  0.76212046  0.26651970     0.00400
O417        O  0.54523123  0.78479952  0.00270755    -0.68800
O418        O  0.93887655  0.74285894  0.13103894    -0.69100
O419        O  0.54107684  0.77058259  0.15094100    -0.68900
O420        O  0.93725119  0.73753538  0.98281048    -0.68900
O421        O  0.95483549  0.65076077  0.98406919    -0.68900
O422        O  0.56176786  0.68595260  0.12931252    -0.68900
O423        O  0.95269399  0.65543743  0.13434806    -0.68900
O424        O  0.55438693  0.69803257  0.98262470    -0.69000
V425        V  0.48954988  0.76717408  0.07285368     1.35200
V426        V  0.00706862  0.66449102  0.06008815     1.35200
C427        C  0.56870940  0.74621541  0.96862079     0.80400
C428        C  0.92770447  0.69694498  0.15848957     0.80400
C429        C  0.57110606  0.72993836  0.16384442     0.80300
C430        C  0.92689297  0.69006752  0.95935840     0.80300
O431        O  0.71581064  0.90939731  0.13802814    -0.68800
O432        O  0.72411247  0.52010736  0.99239983    -0.69100
O433        O  0.68899342  0.91954571  0.99366290    -0.68900
O434        O  0.70977006  0.51076822  0.14019701    -0.68900
O435        O  0.79621152  0.52842890  0.14108355    -0.68900
O436        O  0.77547302  0.91634707  0.97073791    -0.68900
O437        O  0.81222098  0.51506198  0.99441873    -0.68900
O438        O  0.80230603  0.91422250  0.11573363    -0.69000
V439        V  0.70454541  0.96902242  0.07247213     1.35200
V440        V  0.78682277  0.97004356  0.04545293     1.35200
C441        C  0.76363153  0.89260896  0.15059984     0.80400
C442        C  0.76968497  0.53641179  0.96815901     0.80400
C443        C  0.72797526  0.89911934  0.95761695     0.80300
C444        C  0.74867989  0.53849165  0.16464889     0.80300
C445        C  0.77421232  0.84886110  0.20471068    -0.13500
C446        C  0.73785389  0.80939092  0.21493106    -0.28700
H447        H  0.81311042  0.84746248  0.23333967     0.15500
H448        H  0.70065922  0.80974827  0.18227548     0.16100
C449        C  0.88558685  0.69202930  0.21620297    -0.13500
C450        C  0.84598593  0.72959793  0.22161273    -0.28700
H451        H  0.88424767  0.65538958  0.24998815     0.15500
H452        H  0.84655789  0.76452714  0.18480271     0.16100
C453        C  0.66041661  0.70305273  0.21411899    -0.13500
C454        C  0.61684659  0.73574408  0.21613735    -0.28700
H455        H  0.66173144  0.66905387  0.17564670     0.15500
H456        H  0.61678695  0.77053937  0.25343505     0.16100
C457        C  0.76945466  0.62583145  0.21933465    -0.13500
C458        C  0.73758077  0.58243786  0.21737026    -0.28700
H459        H  0.80423562  0.62744820  0.18284426     0.16300
H460        H  0.70077355  0.58138024  0.25037073     0.16100
C461        C  0.77259332  0.85219371  0.40840678    -0.13500
C462        C  0.73834010  0.81025279  0.40418529    -0.28700
H463        H  0.80735653  0.85474380  0.37199092     0.15500
H464        H  0.70563456  0.80920167  0.44382125     0.16100
C465        C  0.84063344  0.72099723  0.41078086    -0.13500
C466        C  0.87848572  0.75979364  0.41859306    -0.28700
H467        H  0.84322574  0.68512003  0.44593047     0.15500
H468        H  0.87695403  0.79695033  0.38622373     0.16100
C469        C  0.61800739  0.67585823  0.40448779    -0.13500
C470        C  0.65344366  0.71636314  0.39399481    -0.28700
H471        H  0.62511166  0.63601568  0.38029769     0.15500
H472        H  0.64384298  0.75493528  0.41918258     0.16100
C473        C  0.79346120  0.58798613  0.40652854    -0.13500
C474        C  0.75243071  0.62387299  0.40205762    -0.28700
H475        H  0.83063186  0.59498146  0.37580241     0.15500
H476        H  0.71646339  0.61789276  0.43558584     0.16100
C477        C  0.74386345  0.67063230  0.85974808     0.00400
C478        C  0.70120648  0.71803337  0.86003742     0.00400
C479        C  0.79026994  0.71315124  0.85782070     0.00400
C480        C  0.74740270  0.76051204  0.85758754     0.00400
C481        C  0.74255587  0.66994370  0.77358360     0.00400
C482        C  0.69978930  0.71632282  0.77436141     0.00400
C483        C  0.78896337  0.71266195  0.77159219     0.00400
C484        C  0.74633632  0.75913549  0.77172443     0.00400
O485        O  0.56122298  0.73201600  0.48025080    -0.68800
O486        O  0.95428621  0.77421099  0.65448684    -0.69100
O487        O  0.56274183  0.73336108  0.62857282    -0.68900
O488        O  0.94678511  0.78879240  0.50616518    -0.68900
O489        O  0.93858051  0.70217635  0.48459920    -0.68900
O490        O  0.54591497  0.64667500  0.63101103    -0.68900
O491        O  0.93280025  0.69018273  0.63151440    -0.68900
O492        O  0.54466728  0.64530201  0.48101900    -0.69000
V493        V  0.50842727  0.74231774  0.55515983     1.35200
V494        V  0.98989363  0.68786019  0.55982807     1.35200
C495        C  0.57209927  0.68468940  0.45644812     0.80400
C496        C  0.92443514  0.73384086  0.66759626     0.80400
C497        C  0.57272334  0.68676276  0.65527936     0.80300
C498        C  0.92344520  0.75038354  0.47165244     0.80300
O499        O  0.71993210  0.90269823  0.64113381    -0.68800
O500        O  0.74562195  0.52374147  0.48057631    -0.69100
O501        O  0.71739662  0.90179200  0.49301654    -0.68900
O502        O  0.74008943  0.52597123  0.62884186    -0.68900
O503        O  0.82817115  0.52386112  0.63615156    -0.68900
O504        O  0.80297138  0.92266853  0.48946287    -0.68900
O505        O  0.83377484  0.52190236  0.48643787    -0.68900
O506        O  0.80571938  0.92272310  0.63962516    -0.69000
V507        V  0.70691430  0.95565368  0.56670832     1.35200
V508        V  0.78925771  0.97544168  0.56458257     1.35200
C509        C  0.76770496  0.89360583  0.66441001     0.80400
C510        C  0.79082496  0.54215494  0.45923931     0.80400
C511        C  0.76403690  0.89420182  0.46567789     0.80300
C512        C  0.78342939  0.54358633  0.65787864     0.80300
C513        C  0.77820359  0.84844400  0.71719690    -0.13500
C514        C  0.74306151  0.80697752  0.71930424    -0.28700
H515        H  0.81413414  0.84855675  0.75239235     0.15500
H516        H  0.70960268  0.80781544  0.68024005     0.16100
C517        C  0.87998719  0.73924514  0.72212202    -0.13500
C518        C  0.83674346  0.70658494  0.71984145    -0.28700
H519        H  0.88119631  0.77253068  0.76178824     0.15500
H520        H  0.83533952  0.67489851  0.67804185     0.16100
C521        C  0.64894914  0.72136536  0.72784335    -0.13500
C522        C  0.61591261  0.67969020  0.71182595    -0.28700
H523        H  0.64005532  0.76061643  0.70335558     0.15500
H524        H  0.62272529  0.63988756  0.73649987     0.16100
C525        C  0.74031210  0.62096452  0.72257537    -0.13500
C526        C  0.78235946  0.58628802  0.71565294    -0.28700
H527        H  0.70566124  0.61666325  0.68576296     0.16300
H528        H  0.81872373  0.59228391  0.74896137     0.16100
C529        C  0.71874020  0.85363125  0.90509428    -0.13500
C530        C  0.75404326  0.81187436  0.90374482    -0.28700
H531        H  0.68173229  0.85247193  0.87241911     0.15500
H532        H  0.78943085  0.81539548  0.93900997     0.16100
C533        C  0.83951764  0.71588751  0.90774579    -0.13500
C534        C  0.88142937  0.68104372  0.90691337    -0.28700
H535        H  0.84113877  0.74842380  0.94789073     0.15500
H536        H  0.88159066  0.64609424  0.87010847     0.16100
C537        C  0.61365621  0.75538859  0.91583275    -0.13500
C538        C  0.65288825  0.71731776  0.91150482    -0.28700
H539        H  0.61460697  0.79190262  0.88219724     0.15500
H540        H  0.64974221  0.68318827  0.94891722     0.16100
C541        C  0.77473911  0.58067031  0.91287008    -0.13500
C542        C  0.73812420  0.62083889  0.90914160    -0.28700
H543        H  0.81159476  0.58311276  0.88055068     0.15500
H544        H  0.70329362  0.61747733  0.94492139     0.16100
loop_ 
_geom_bond_atom_site_label_1 
_geom_bond_atom_site_label_2 
_geom_bond_distance 
_geom_bond_site_symmetry_2 
_ccdc_geom_bond_type 
C1            C2   1.559       .  S
C1            C3   1.550       .  S
C1            C5   1.546       .  S
C1           C66   1.515       .  S
C2            C4   1.547       .  S
C2            C6   1.548       .  S
C2           C62   1.504       .  S
C3            C4   1.554       .  S
C3            C7   1.546       .  S
C3           C57   1.511       .  S
C4            C8   1.546       .  S
C4           C54   1.501       .  S
C5            C6   1.545       .  S
C5            C7   1.551       .  S
C5           C49   1.503       .  S
C6            C8   1.558       .  S
C6           C45   1.516       .  S
C7            C8   1.553       .  S
C7           C42   1.509       .  S
C8           C38   1.508       .  S
O9           V17   1.882   1_456  S
O9           C19   1.258       .  A
O10         V289   1.896       .  S
O10          C20   1.263       .  A
O11          V17   1.913   1_455  S
O11          C21   1.271       .  A
O12         V289   1.911   1_556  S
O12          C22   1.266       .  A
O13          V18   1.910   1_556  S
O13          C22   1.267       .  A
O14         V290   1.893   1_455  S
O14          C21   1.259       .  A
O15          V18   1.901       .  S
O15          C20   1.263       .  A
O16         V290   1.923   1_456  S
O16          C19   1.270       .  A
V17         O282   1.893       .  S
V17         O284   1.915   1_554  S
V17         V290   2.084       .  T
V18         O286   1.909       .  S
V18         O288   1.907   1_554  S
V18         V289   2.087       .  T
C19         C129   1.471       .  S
C20          C41   1.465       .  S
C21          C46   1.479       .  S
C22         C126   1.488       .  S
O23          V31   1.893       .  S
O23          C33   1.265       .  A
O24         V167   1.894   1_556  S
O24          C34   1.260   1_565  A
O25          V31   1.897   1_556  S
O25          C35   1.265       .  A
O26         V167   1.905   1_545  S
O26          C36   1.266       .  A
O27         V168   1.892   1_545  S
O27          C36   1.261       .  A
O28          V32   1.899   1_556  S
O28          C35   1.263       .  A
O29         V168   1.896   1_556  S
O29          C34   1.266   1_565  A
O30          V32   1.889       .  S
O30          C33   1.260       .  A
V31         O160   1.908   1_554  S
V31         O162   1.902       .  S
V31          V32   2.088       .  T
V32         O163   1.903       .  S
V32         O165   1.877   1_554  S
C33          C37   1.464       .  S
C34         C133   1.466       .  S
C35         C121   1.471       .  S
C36          C50   1.467       .  S
C37          C38   1.331       .  D
C37          H39   1.072       .  S
C38          H40   1.086       .  S
C41          C42   1.338       .  D
C41          H43   1.080       .  S
C42          H44   1.086       .  S
C45          C46   1.336       .  D
C45          H47   1.084       .  S
C46          H48   1.086       .  S
C49          C50   1.340       .  D
C49          H51   1.086       .  S
C50          H52   1.087       .  S
C53         C103   1.457       .  S
C53          C54   1.328       .  D
C53          H55   1.085       .  S
C54          H56   1.085       .  S
C57          C58   1.342       .  D
C57          H59   1.085       .  S
C58          C90   1.470       .  S
C58          H60   1.084       .  S
C61          C87   1.474       .  S
C61          C62   1.344       .  D
C61          H63   1.078       .  S
C62          H64   1.084       .  S
C65         C102   1.478       .  S
C65          C66   1.340       .  D
C65          H67   1.080       .  S
C66          H68   1.086       .  S
C69          C70   1.545       .  S
C69          C71   1.556       .  S
C69          C73   1.534       .  S
C69         C134   1.501       .  S
C70          C72   1.558       .  S
C70          C74   1.542       .  S
C70         C130   1.514       .  S
C71          C72   1.561       .  S
C71          C75   1.558       .  S
C71         C125   1.527       .  S
C72          C76   1.561       .  S
C72         C122   1.509       .  S
C73          C74   1.549       .  S
C73          C75   1.551       .  S
C73         C117   1.510       .  S
C74          C76   1.552       .  S
C74         C113   1.514       .  S
C75          C76   1.561       .  S
C75         C110   1.502       .  S
C76         C106   1.522       .  S
O77          V85   1.912   1_455  S
O77          C87   1.268       .  A
O78         V357   1.897       .  S
O78          C88   1.261       .  A
O79          V85   1.890   1_455  S
O79          C89   1.259       .  A
O80         V357   1.899       .  S
O80          C90   1.264       .  A
O81          V86   1.896       .  S
O81          C90   1.264       .  A
O82         V358   1.909       .  S
O82          C89   1.270       .  A
O83          V86   1.899       .  S
O83          C88   1.266       .  A
O84         V358   1.884       .  S
O84          C87   1.261       .  A
V85         O350   1.910       .  S
V85         O352   1.896       .  S
V85         V358   2.080   1_655  T
V86         O354   1.904       .  S
V86         O356   1.905       .  S
V86         V357   2.089       .  T
C88         C109   1.471       .  S
C89         C114   1.472       .  S
O91          V99   1.930       .  S
O91         C101   1.273       .  A
O92         V235   1.900   1_545  S
O92         C102   1.263       .  A
O93          V99   1.872       .  S
O93         C103   1.254       .  A
O94         V235   1.890       .  S
O94         C104   1.265   1_565  A
O95         V236   1.907   1_545  S
O95         C104   1.263       .  A
O96         V100   1.912       .  S
O96         C103   1.270       .  A
O97         V236   1.907   1_545  S
O97         C102   1.267       .  A
O98         V100   1.885       .  S
O98         C101   1.258       .  A
V99         O228   1.912       .  S
V99         O230   1.882       .  S
V99         V100   2.084       .  T
V100        O231   1.916       .  S
V100        O233   1.892       .  S
C101        C105   1.479       .  S
C104        C118   1.476       .  S
C105        C106   1.339       .  D
C105        H107   1.080       .  S
C106        H108   1.084       .  S
C109        C110   1.336       .  D
C109        H111   1.081       .  S
C110        H112   1.084       .  S
C113        C114   1.335       .  D
C113        H115   1.079       .  S
C114        H116   1.084       .  S
C117        C118   1.339       .  D
C117        H119   1.079       .  S
C118        H120   1.086       .  S
C121        C122   1.339       .  D
C121        H123   1.077       .  S
C122        H124   1.084       .  S
C125        C126   1.346       .  D
C125        H127   1.082       .  S
C126        H128   1.080       .  S
C129        C130   1.337       .  D
C129        H131   1.084       .  S
C130        H132   1.085       .  S
C133        C134   1.336       .  D
C133        H135   1.086       .  S
C134        H136   1.082       .  S
C137        C138   1.555       .  S
C137        C139   1.554       .  S
C137        C141   1.545       .  S
C137        C202   1.512       .  S
C138        C140   1.554       .  S
C138        C142   1.544       .  S
C138        C198   1.521       .  S
C139        C140   1.555       .  S
C139        C143   1.549       .  S
C139        C193   1.503       .  S
C140        C144   1.548       .  S
C140        C190   1.503       .  S
C141        C142   1.547       .  S
C141        C143   1.551       .  S
C141        C185   1.506       .  S
C142        C144   1.547       .  S
C142        C181   1.492       .  S
C143        C144   1.549       .  S
C143        C178   1.517       .  S
C144        C174   1.508       .  S
O145        V153   1.902   1_456  S
O145        C155   1.263       .  A
O146        V425   1.921       .  S
O146        C156   1.272       .  A
O147        V153   1.901   1_455  S
O147        C157   1.263       .  A
O148        V425   1.883   1_556  S
O148        C158   1.257       .  A
O149        V154   1.912   1_556  S
O149        C158   1.269       .  A
O150        V426   1.882       .  S
O150        C157   1.262       .  A
O151        V154   1.896       .  S
O151        C156   1.260       .  A
O152        V426   1.907   1_556  S
O152        C155   1.268       .  A
V153        O418   1.893       .  S
V153        O420   1.894   1_554  S
V153        V426   2.088   1_655  T
V154        O422   1.909       .  S
V154        O424   1.883   1_554  S
V154        V425   2.085       .  T
C155        C265   1.479       .  S
C156        C177   1.485       .  S
C157        C182   1.463       .  S
C158        C262   1.467       .  S
O159        V167   1.902       .  S
O159        C169   1.267       .  A
O160        C170   1.264       .  A
O161        V167   1.899       .  S
O161        C171   1.262   1_554  A
O162        C172   1.263       .  A
O163        C172   1.266       .  A
O164        V168   1.899   1_556  S
O164        C171   1.265       .  A
O165        C170   1.263       .  A
O166        V168   1.898       .  S
O166        C169   1.261       .  A
V167        V168   2.090       .  T
C169        C173   1.472       .  S
C170        C269   1.474       .  S
C171        C257   1.469       .  S
C172        C186   1.477       .  S
C173        C174   1.336       .  D
C173        H175   1.086       .  S
C174        H176   1.084       .  S
C177        C178   1.337       .  D
C177        H179   1.086       .  S
C178        H180   1.083       .  S
C181        C182   1.337       .  D
C181        H183   1.085       .  S
C182        H184   1.085       .  S
C185        C186   1.340       .  D
C185        H187   1.086       .  S
C186        H188   1.086       .  S
C189        C239   1.470       .  S
C189        C190   1.341       .  D
C189        H191   1.084       .  S
C190        H192   1.087       .  S
C193        C194   1.337       .  D
C193        H195   1.085       .  S
C194        C226   1.475       .  S
C194        H196   1.086       .  S
C197        C223   1.477       .  S
C197        C198   1.335       .  D
C197        H199   1.082       .  S
C198        H200   1.080       .  S
C201        C238   1.480       .  S
C201        C202   1.332       .  D
C201        H203   1.086       .  S
C202        H204   1.077       .  S
C205        C206   1.551       .  S
C205        C207   1.546       .  S
C205        C209   1.538       .  S
C205        C270   1.498       .  S
C206        C208   1.546       .  S
C206        C210   1.550       .  S
C206        C266   1.511       .  S
C207        C208   1.553       .  S
C207        C211   1.543       .  S
C207        C261   1.510       .  S
C208        C212   1.550       .  S
C208        C258   1.505       .  S
C209        C210   1.552       .  S
C209        C211   1.552       .  S
C209        C253   1.506       .  S
C210        C212   1.558       .  S
C210        C249   1.507       .  S
C211        C212   1.554       .  S
C211        C246   1.506       .  S
C212        C242   1.511       .  S
O213        V221   1.889       .  S
O213        C223   1.259       .  A
O214        V493   1.901       .  S
O214        C224   1.262       .  A
O215        V221   1.915       .  S
O215        C225   1.272       .  A
O216        V493   1.898       .  S
O216        C226   1.261       .  A
O217        V222   1.902       .  S
O217        C226   1.268       .  A
O218        V494   1.889   1_455  S
O218        C225   1.257       .  A
O219        V222   1.895       .  S
O219        C224   1.265       .  A
O220        V494   1.920   1_455  S
O220        C223   1.271       .  A
V221        O486   1.896   1_455  S
V221        O488   1.918   1_455  S
V221        V494   2.084   1_455  T
V222        O490   1.909       .  S
V222        O492   1.911       .  S
V222        V493   2.087       .  T
C224        C245   1.471       .  S
C225        C250   1.476       .  S
O227        V235   1.898       .  S
O227        C237   1.265       .  A
O228        C238   1.273       .  A
O229        V235   1.902       .  S
O229        C239   1.262       .  A
O230        C240   1.259       .  A
O231        C240   1.269       .  A
O232        V236   1.897       .  S
O232        C239   1.265       .  A
O233        C238   1.258       .  A
O234        V236   1.898       .  S
O234        C237   1.263       .  A
V235        V236   2.088       .  T
C237        C241   1.471       .  S
C240        C254   1.471       .  S
C241        C242   1.338       .  D
C241        H243   1.076       .  S
C242        H244   1.086       .  S
C245        C246   1.337       .  D
C245        H247   1.084       .  S
C246        H248   1.085       .  S
C249        C250   1.332       .  D
C249        H251   1.085       .  S
C250        H252   1.087       .  S
C253        C254   1.350       .  D
C253        H255   1.086       .  S
C254        H256   1.086       .  S
C257        C258   1.338       .  D
C257        H259   1.083       .  S
C258        H260   1.084       .  S
C261        C262   1.332       .  D
C261        H263   1.082       .  S
C262        H264   1.086       .  S
C265        C266   1.340       .  D
C265        H267   1.085       .  S
C266        H268   1.084       .  S
C269        C270   1.339       .  D
C269        H271   1.085       .  S
C270        H272   1.080       .  S
C273        C274   1.541       .  S
C273        C275   1.559       .  S
C273        C277   1.537       .  S
C273        C338   1.498       .  S
C274        C276   1.558       .  S
C274        C278   1.539       .  S
C274        C334   1.500       .  S
C275        C276   1.562       .  S
C275        C279   1.560       .  S
C275        C329   1.526       .  S
C276        C280   1.559       .  S
C276        C326   1.525       .  S
C277        C278   1.552       .  S
C277        C279   1.550       .  S
C277        C321   1.508       .  S
C278        C280   1.547       .  S
C278        C317   1.520       .  S
C279        C280   1.559       .  S
C279        C314   1.513       .  S
C280        C310   1.500       .  S
O281        V289   1.899   1_556  S
O281        C291   1.264       .  A
O282        C292   1.260       .  A
O283        V289   1.904       .  S
O283        C293   1.263       .  A
O284        C294   1.268       .  A
O285        V290   1.890   1_556  S
O285        C294   1.262       .  A
O286        C293   1.269       .  A
O287        V290   1.918       .  S
O287        C292   1.270       .  A
O288        C291   1.265       .  A
C291        C401   1.476       .  S
C292        C313   1.479       .  S
C293        C318   1.484       .  S
C294        C398   1.477       .  S
O295        V303   1.913       .  S
O295        C305   1.270       .  A
O296        V439   1.897   1_545  S
O296        C306   1.263   1_554  A
O297        V303   1.879   1_556  S
O297        C307   1.259       .  A
O298        V439   1.897   1_545  S
O298        C308   1.266       .  A
O299        V440   1.900   1_545  S
O299        C308   1.262       .  A
O300        V304   1.905       .  S
O300        C307   1.267   1_554  A
O301        V440   1.910   1_546  S
O301        C306   1.267       .  A
O302        V304   1.879       .  S
O302        C305   1.257       .  A
V303        O432   1.920   1_554  S
V303        O434   1.883       .  S
V303        V304   2.077       .  T
V304        O435   1.906       .  S
V304        O437   1.890   1_554  S
C305        C309   1.463       .  S
C306        C405   1.477       .  S
C307        C393   1.463       .  S
C308        C322   1.473       .  S
C309        C310   1.330       .  D
C309        H311   1.082       .  S
C310        H312   1.085       .  S
C313        C314   1.337       .  D
C313        H315   1.083       .  S
C314        H316   1.083       .  S
C317        C318   1.340       .  D
C317        H319   1.079       .  S
C318        H320   1.086       .  S
C321        C322   1.337       .  D
C321        H323   1.080       .  S
C322        H324   1.086       .  S
C325        C375   1.484       .  S
C325        C326   1.346       .  D
C325        H327   1.077       .  S
C326        H328   1.082       .  S
C329        C330   1.338       .  D
C329        H331   1.079       .  S
C330        C362   1.482       .  S
C330        H332   1.079       .  S
C333        C359   1.470       .  S
C333        C334   1.340       .  D
C333        H335   1.085       .  S
C334        H336   1.082       .  S
C337        C374   1.466       .  S
C337        C338   1.334       .  D
C337        H339   1.085       .  S
C338        H340   1.081       .  S
C341        C342   1.566       .  S
C341        C343   1.564       .  S
C341        C345   1.547       .  S
C341        C406   1.519       .  S
C342        C344   1.563       .  S
C342        C346   1.548       .  S
C342        C402   1.518       .  S
C343        C344   1.559       .  S
C343        C347   1.540       .  S
C343        C397   1.512       .  S
C344        C348   1.542       .  S
C344        C394   1.508       .  S
C345        C346   1.547       .  S
C345        C347   1.545       .  S
C345        C389   1.505       .  S
C346        C348   1.545       .  S
C346        C385   1.503       .  S
C347        C348   1.543       .  S
C347        C382   1.502       .  S
C348        C378   1.508       .  S
O349        V357   1.887       .  S
O349        C359   1.263       .  A
O350        C360   1.271       .  A
O351        V357   1.891       .  S
O351        C361   1.265       .  A
O352        C362   1.260       .  A
O353        V358   1.917   1_655  S
O353        C362   1.271       .  A
O354        C361   1.263       .  A
O355        V358   1.886   1_655  S
O355        C360   1.257       .  A
O356        C359   1.264       .  A
C360        C381   1.469       .  S
C361        C386   1.474       .  S
O363        V371   1.895       .  S
O363        C373   1.264       .  A
O364        V507   1.898   1_545  S
O364        C374   1.260       .  A
O365        V371   1.904       .  S
O365        C375   1.265       .  A
O366        V507   1.905   1_545  S
O366        C376   1.264       .  A
O367        V508   1.897   1_545  S
O367        C376   1.265       .  A
O368        V372   1.911       .  S
O368        C375   1.267       .  A
O369        V508   1.887   1_545  S
O369        C374   1.265       .  A
O370        V372   1.896       .  S
O370        C373   1.262       .  A
V371        O500   1.898       .  S
V371        O502   1.901       .  S
V371        V372   2.088       .  T
V372        O503   1.906       .  S
V372        O505   1.902       .  S
C373        C377   1.467       .  S
C376        C390   1.476       .  S
C377        C378   1.338       .  D
C377        H379   1.087       .  S
C378        H380   1.082       .  S
C381        C382   1.329       .  D
C381        H383   1.087       .  S
C382        H384   1.083       .  S
C385        C386   1.339       .  D
C385        H387   1.081       .  S
C386        H388   1.084       .  S
C389        C390   1.342       .  D
C389        H391   1.086       .  S
C390        H392   1.085       .  S
C393        C394   1.340       .  D
C393        H395   1.069       .  S
C394        H396   1.086       .  S
C397        C398   1.344       .  D
C397        H399   1.085       .  S
C398        H400   1.086       .  S
C401        C402   1.342       .  D
C401        H403   1.077       .  S
C402        H404   1.084       .  S
C405        C406   1.341       .  D
C405        H407   1.077       .  S
C406        H408   1.086       .  S
C409        C410   1.545       .  S
C409        C411   1.554       .  S
C409        C413   1.544       .  S
C409        C474   1.502       .  S
C410        C412   1.558       .  S
C410        C414   1.539       .  S
C410        C470   1.513       .  S
C411        C412   1.549       .  S
C411        C415   1.551       .  S
C411        C465   1.503       .  S
C412        C416   1.548       .  S
C412        C462   1.507       .  S
C413        C414   1.543       .  S
C413        C415   1.546       .  S
C413        C457   1.494       .  S
C414        C416   1.550       .  S
C414        C453   1.505       .  S
C415        C416   1.555       .  S
C415        C450   1.509       .  S
C416        C446   1.503       .  S
O417        V425   1.920       .  S
O417        C427   1.268   1_554  A
O418        C428   1.263       .  A
O419        V425   1.890       .  S
O419        C429   1.260       .  A
O420        C430   1.267       .  A
O421        V426   1.904   1_656  S
O421        C430   1.262       .  A
O422        C429   1.268       .  A
O423        V426   1.911   1_655  S
O423        C428   1.266       .  A
O424        C427   1.262       .  A
C427        C537   1.481       .  S
C428        C449   1.477       .  S
C429        C454   1.471       .  S
C430        C534   1.478       .  S
O431        V439   1.898       .  S
O431        C441   1.265       .  A
O432        C442   1.273       .  A
O433        V439   1.907   1_556  S
O433        C443   1.264       .  A
O434        C444   1.256       .  A
O435        C444   1.270       .  A
O436        V440   1.904   1_556  S
O436        C443   1.267       .  A
O437        C442   1.259       .  A
O438        V440   1.900       .  S
O438        C441   1.263       .  A
V439        V440   2.087       .  T
C441        C445   1.471       .  S
C442        C541   1.479       .  S
C443        C529   1.481       .  S
C444        C458   1.463       .  S
C445        C446   1.336       .  D
C445        H447   1.086       .  S
C446        H448   1.086       .  S
C449        C450   1.343       .  D
C449        H451   1.086       .  S
C450        H452   1.084       .  S
C453        C454   1.338       .  D
C453        H455   1.086       .  S
C454        H456   1.087       .  S
C457        C458   1.327       .  D
C457        H459   1.083       .  S
C458        H460   1.087       .  S
C461        C511   1.474       .  S
C461        C462   1.337       .  D
C461        H463   1.083       .  S
C462        H464   1.079       .  S
C465        C466   1.343       .  D
C465        H467   1.086       .  S
C466        C498   1.475       .  S
C466        H468   1.083       .  S
C469        C495   1.486       .  S
C469        C470   1.341       .  D
C469        H471   1.085       .  S
C470        H472   1.076       .  S
C473        C510   1.473       .  S
C473        C474   1.339       .  D
C473        H475   1.087       .  S
C474        H476   1.085       .  S
C477        C478   1.564       .  S
C477        C479   1.553       .  S
C477        C481   1.551       .  S
C477        C542   1.519       .  S
C478        C480   1.548       .  S
C478        C482   1.542       .  S
C478        C538   1.512       .  S
C479        C480   1.567       .  S
C479        C483   1.552       .  S
C479        C533   1.507       .  S
C480        C484   1.546       .  S
C480        C530   1.520       .  S
C481        C482   1.548       .  S
C481        C483   1.556       .  S
C481        C525   1.515       .  S
C482        C484   1.560       .  S
C482        C521   1.507       .  S
C483        C484   1.547       .  S
C483        C518   1.512       .  S
C484        C514   1.508       .  S
O485        V493   1.894       .  S
O485        C495   1.267       .  A
O486        C496   1.260       .  A
O487        V493   1.887       .  S
O487        C497   1.263       .  A
O488        C498   1.268       .  A
O489        V494   1.878       .  S
O489        C498   1.261       .  A
O490        C497   1.265       .  A
O491        V494   1.914       .  S
O491        C496   1.270       .  A
O492        C495   1.264       .  A
C496        C517   1.480       .  S
C497        C522   1.477       .  S
O499        V507   1.891       .  S
O499        C509   1.265       .  A
O500        C510   1.265       .  A
O501        V507   1.891       .  S
O501        C511   1.265       .  A
O502        C512   1.264       .  A
O503        C512   1.265       .  A
O504        V508   1.904       .  S
O504        C511   1.263       .  A
O505        C510   1.263       .  A
O506        V508   1.911       .  S
O506        C509   1.264       .  A
V507        V508   2.088       .  T
C509        C513   1.481       .  S
C512        C526   1.477       .  S
C513        C514   1.341       .  D
C513        H515   1.085       .  S
C514        H516   1.080       .  S
C517        C518   1.337       .  D
C517        H519   1.086       .  S
C518        H520   1.083       .  S
C521        C522   1.341       .  D
C521        H523   1.081       .  S
C522        H524   1.085       .  S
C525        C526   1.344       .  D
C525        H527   1.083       .  S
C526        H528   1.086       .  S
C529        C530   1.341       .  D
C529        H531   1.082       .  S
C530        H532   1.079       .  S
C533        C534   1.338       .  D
C533        H535   1.078       .  S
C534        H536   1.085       .  S
C537        C538   1.344       .  D
C537        H539   1.082       .  S
C538        H540   1.078       .  S
C541        C542   1.335       .  D
C541        H543   1.083       .  S
C542        H544   1.079       .  S
