geometry optimzed in LAMMPS
_audit_creation_date              2020-11-30 
_audit_creation_method            'lammps2cif' 
_symmetry_space_group_name_H-M    'P1' 
_symmetry_Int_Tables_number       1 
_symmetry_cell_setting            triclinic 
loop_ 
_symmetry_equiv_pos_as_xyz 
  x,y,z 
_cell_length_a                    35.34154593 
_cell_length_b                    35.3238261076581 
_cell_length_c                    45.541029407904425 
_cell_angle_alpha                 90.3105051064725 
_cell_angle_beta                  89.60814713370246 
_cell_angle_gamma                 119.96295315073488 
loop_ 
_atom_site_label 
_atom_site_type_symbol 
_atom_site_fract_x 
_atom_site_fract_y 
_atom_site_fract_z 
_atom_site_charge 
C1          C  0.23295094  0.94586058  0.04078810     0.79900
N2          N  0.19666192  0.95029674  0.03927543    -0.78400
C3          C  0.20144660  0.99038438  0.03328901     0.82300
N4          N  0.24195279  0.02466933  0.02810730    -0.78400
C5          C  0.27782196  0.02027366  0.02878399     0.82400
N6          N  0.27307818  0.98074206  0.03525596    -0.80100
C7          C  0.61662881  0.42806935  0.07309559     0.79900
N8          N  0.59641637  0.39662599  0.05218659    -0.78400
C9          C  0.60640885  0.36447535  0.04842841     0.82300
N10         N  0.63701787  0.36400288  0.06580924    -0.78400
C11         C  0.65705072  0.39434761  0.08707064     0.82400
N12         N  0.64653758  0.42631264  0.09108090    -0.80100
C13         C  0.15915663  0.24044712  0.05897620     0.79900
N14         N  0.15753966  0.20147774  0.05302184    -0.78400
C15         C  0.11865240  0.16622709  0.04455132     0.82300
N16         N  0.08335703  0.17120725  0.04077997    -0.78400
C17         C  0.08524933  0.20985358  0.04532690     0.82400
N18         N  0.12310097  0.24414001  0.05470147    -0.80100
C19         C  0.67959597  0.14481413  0.08159702     0.79900
N20         N  0.68179446  0.17751904  0.09921029    -0.78400
C21         C  0.71416792  0.21980165  0.09448734     0.82300
N22         N  0.74403068  0.22866991  0.07302211    -0.78400
C23         C  0.74298453  0.19665927  0.05614739     0.82400
N24         N  0.71071883  0.15497245  0.06055929    -0.80100
C25         C  0.96199694  0.49124158  0.07499464     0.79900
N26         N  0.95187754  0.51070165  0.05312154    -0.78400
C27         C  0.91011633  0.50065999  0.04819772     0.82300
N28         N  0.87802531  0.47055467  0.06541954    -0.78400
C29         C  0.88699868  0.45114170  0.08767845     0.82400
N30         N  0.92929522  0.46185863  0.09291918    -0.80100
C31         C  0.87014374  0.87611000  0.05946584     0.79900
N32         N  0.90859183  0.91315793  0.05232286    -0.78400
C33         C  0.94437565  0.90961171  0.04482997     0.82300
N34         N  0.94039664  0.86944600  0.04322970    -0.78400
C35         C  0.90221715  0.83280682  0.04911845     0.82400
N36         N  0.86741236  0.83646406  0.05746480    -0.80100
C37         C  0.43967207  0.73345259  0.08435264     0.02000
C38         C  0.39332288  0.70731301  0.08326850     0.02000
C39         C  0.37293679  0.66086903  0.08372335     0.02000
C40         C  0.39908123  0.64065345  0.08440887     0.02000
C41         C  0.44541243  0.66682241  0.08469695     0.02000
C42         C  0.46573532  0.71315638  0.08465444     0.02000
O43         O  0.81195485  0.45978473  0.18800991    -0.78800
C44         C  0.82949796  0.33917972  0.20092654     0.82200
O45         O  0.81370752  0.39733205  0.09585377    -0.79900
O46         O  0.72041505  0.25413646  0.14089407    -0.81400
O47         O  0.65612690  0.32470480  0.19106239    -0.81200
O48         O  0.74053995  0.43491362  0.19385598    -0.79800
Zn49       Zn  0.81232271  0.40607849  0.16952273     1.55700
O50         O  0.68151560  0.27865101  0.19782763    -0.81200
Cd51       Cd  0.70977798  0.37740099  0.17017124     1.59700
Cd52       Cd  0.75253804  0.35629505  0.11352189     1.59600
O53         O  0.68378465  0.39346701  0.13456494    -0.81200
O54         O  0.75403438  0.36098324  0.15706172    -1.91700
Cd55       Cd  0.73844169  0.30210786  0.17362586     1.59900
O56         O  0.70932635  0.37339566  0.09623046    -0.81200
O57         O  0.79243184  0.30544150  0.19564326    -0.79800
C58         C  0.85051628  0.42344815  0.10738761     0.82700
C59         C  0.78030669  0.46553920  0.19571669     0.82300
O60         O  0.83764790  0.37772080  0.19451067    -0.78800
C61         C  0.65097220  0.28800004  0.19958955     0.83200
O62         O  0.85494403  0.42933648  0.13503121    -0.78900
C63         C  0.68580985  0.38805123  0.10705900     0.83300
C64         C  0.72120217  0.25704330  0.11300069     0.83600
O65         O  0.73300625  0.29320956  0.10008387    -0.81300
C66         C  0.62908456  0.83433881  0.23841617     0.79900
N67         N  0.61887348  0.85444613  0.21698907    -0.78400
C68         C  0.57697288  0.84435121  0.21235721     0.82300
N69         N  0.54501615  0.81363540  0.22936935    -0.78400
C70         C  0.55420894  0.79374636  0.25118688     0.82400
N71         N  0.59649916  0.80447928  0.25613633    -0.80100
C72         C  0.53155639  0.22001534  0.21668395     0.79900
N73         N  0.52652246  0.17965212  0.21226346    -0.78400
C74         C  0.56132646  0.17487791  0.20562737     0.82300
N75         N  0.60125355  0.21087366  0.20367801    -0.78400
C76         C  0.60727505  0.25155485  0.20757856     0.82400
N77         N  0.57199015  0.25645673  0.21366442    -0.80100
C78         C  0.35317309  0.48816148  0.24226101     0.79900
N79         N  0.35563293  0.52046439  0.26029804    -0.78400
C80         C  0.38668254  0.56296830  0.25515207     0.82300
N81         N  0.41524358  0.57265879  0.23268890    -0.78400
C82         C  0.41403120  0.54103201  0.21522852     0.82400
N83         N  0.38290930  0.49890466  0.22014245    -0.80100
C84         C  0.83075610  0.58636511  0.20821622     0.79900
N85         N  0.79450810  0.58985635  0.20450775    -0.78400
C86         C  0.75488398  0.55411968  0.20037615     0.82300
N87         N  0.75168581  0.51440721  0.19982829    -0.78400
C88         C  0.78718854  0.50956529  0.20291437     0.82400
N89         N  0.82744565  0.54595022  0.20690900    -0.80100
C90         C  0.28323382  0.77031794  0.24108510     0.79900
N91         N  0.26325625  0.74020093  0.21946459    -0.78400
C92         C  0.27279715  0.70803004  0.21454134     0.82300
N93         N  0.30298757  0.70607457  0.23157045    -0.78400
C94         C  0.32308875  0.73517043  0.25358287     0.82400
N95         N  0.31289468  0.76729734  0.25870826    -0.80100
C96         C  0.90227856  0.29620131  0.22497621     0.79900
N97         N  0.86457928  0.29698294  0.21933357    -0.78400
C98         C  0.86723702  0.33544133  0.21095623     0.82300
N99         N  0.90707371  0.37127779  0.20681396    -0.78400
C100        C  0.94430424  0.37026660  0.21111062     0.82400
N101        N  0.94161852  0.33276119  0.22052686    -0.80100
C102        C  0.06473499  0.98442452  0.25533152     0.02000
C103        C  0.03912008  0.00521531  0.25516456     0.02000
C104        C  0.05986512  0.05169789  0.25498046     0.02000
C105        C  0.10630409  0.07729932  0.25536972     0.02000
C106        C  0.13189045  0.05637524  0.25586631     0.02000
C107        C  0.11107607  0.00995119  0.25593992     0.02000
C108        C  0.57601107  0.63911831  0.39077664     0.79900
N109        N  0.61469723  0.67679247  0.38766310    -0.78400
C110        C  0.61655782  0.71401955  0.37859206     0.82300
N111        N  0.57894239  0.71373273  0.37296355    -0.78400
C112        C  0.53950743  0.67668609  0.37550002     0.82400
N113        N  0.53788586  0.63852630  0.38381938    -0.80100
C114        C  0.95848271  0.11012385  0.40479434     0.79900
N115        N  0.94074587  0.08092009  0.38243492    -0.78400
C116        C  0.95058624  0.04883938  0.37823487     0.82300
N117        N  0.97906432  0.04624637  0.39664575    -0.78400
C118        C  0.99703074  0.07454731  0.41934313     0.82400
N119        N  0.98620438  0.10631147  0.42386494    -0.80100
C120        C  0.48719805  0.91872130  0.38083554     0.79900
N121        N  0.48800185  0.88061633  0.37620218    -0.78400
C122        C  0.44999306  0.84342367  0.36883575     0.82300
N123        N  0.41315082  0.84553674  0.36484882    -0.78400
C124        C  0.41252172  0.88310078  0.36818463     0.82400
N125        N  0.44949812  0.91942078  0.37650100    -0.80100
C126        C  0.01860975  0.82180996  0.41958426     0.79900
N127        N  0.04507152  0.82939885  0.39596129    -0.78400
C128        C  0.07459305  0.87060556  0.38768728     0.82300
N129        N  0.07776197  0.90459286  0.40349959    -0.78400
C130        C  0.05227344  0.89793379  0.42744422     0.82400
N131        N  0.02261240  0.85628593  0.43578928    -0.80100
C132        C  0.29917896  0.17350963  0.40594159     0.79900
N133        N  0.26699368  0.14382234  0.42393063    -0.78400
C134        C  0.22451571  0.13227292  0.41892910     0.82300
N135        N  0.21470689  0.15101737  0.39665817    -0.78400
C136        C  0.24632696  0.18134467  0.37922624     0.82400
N137        N  0.28843795  0.19240115  0.38402703    -0.80100
C138        C  0.20507330  0.55167322  0.38930863     0.79900
N139        N  0.24370446  0.58915666  0.38303448    -0.78400
C140        C  0.27905162  0.58581286  0.37391582     0.82300
N141        N  0.27444368  0.54571731  0.36983511    -0.78400
C142        C  0.23612414  0.50884610  0.37473966     0.82400
N143        N  0.20180493  0.51210057  0.38478474    -0.80100
C144        C  0.73390443  0.32030931  0.41934577     0.02000
C145        C  0.70921448  0.34213359  0.41973382     0.02000
C146        C  0.73090203  0.38860883  0.42048024     0.02000
C147        C  0.77733031  0.41306200  0.42166902     0.02000
C148        C  0.80210439  0.39130399  0.42137902     0.02000
C149        C  0.78031626  0.34489419  0.42033823     0.02000
O150        O  0.14526360  0.11908705  0.02668417    -0.78800
C151        C  0.16429728  0.99726154  0.02700534     0.82200
O152        O  0.15200393  0.07715703  0.42753056    -0.79900
O153        O  0.06087082  0.93386286  0.47317973    -0.81400
O154        O  0.99034757  0.98357247  0.02785902    -0.81200
O155        O  0.07342879  0.09334227  0.03133499    -0.79800
Zn156      Zn  0.15300833  0.08379232  0.50161358     1.55700
O157        O  0.01627502  0.93742018  0.02789470    -0.81200
Cd158      Cd  0.04976825  0.05575386  0.50228310     1.59700
Cd159      Cd  0.09175240  0.03494941  0.44564612     1.59600
O160        O  0.02349575  0.07275019  0.46705999    -0.81200
O161        O  0.09421752  0.03949792  0.48926782    -1.91700
Cd162      Cd  0.07892000  0.98093864  0.50612378     1.59900
O163        O  0.04783657  0.05157186  0.42871732    -0.81200
O164        O  0.12657836  0.96492619  0.02119610    -0.79800
C165        C  0.18878279  0.10383099  0.43881112     0.82700
C166        C  0.11299266  0.12363017  0.03480295     0.82300
O167        O  0.17313564  0.03684742  0.02400162    -0.78800
C168        C  0.98615404  0.94634648  0.03377952     0.83200
O169        O  0.19393781  0.10912431  0.46646537    -0.78900
C170        C  0.02494215  0.06696585  0.43954121     0.83300
C171        C  0.06149520  0.93633890  0.44528039     0.83600
O172        O  0.07323896  0.97221572  0.43199189    -0.81300
O173        O  0.47902201  0.79761815  0.35248507    -0.78800
C174        C  0.50136956  0.67935204  0.36439451     0.82200
O175        O  0.48105275  0.73978063  0.25936088    -0.79900
O176        O  0.39432720  0.59561690  0.30220676    -0.81400
O177        O  0.32492503  0.65941516  0.35647925    -0.81200
O178        O  0.40717360  0.76889721  0.35962222    -0.79800
Zn179      Zn  0.48130896  0.74515634  0.33336772     1.55700
O180        O  0.35248702  0.61477734  0.36034033    -0.81200
Cd181      Cd  0.37706153  0.71296850  0.33492209     1.59700
Cd182      Cd  0.42046596  0.69726610  0.27706192     1.59600
O183        O  0.34960420  0.73044417  0.30061504    -0.81200
O184        O  0.42310266  0.69955887  0.32076223    -1.91700
Cd185      Cd  0.41013584  0.64097824  0.33634367     1.59900
O186        O  0.37624565  0.71444504  0.26100380    -0.81200
O187        O  0.46479450  0.64517070  0.35865351    -0.79800
C188        C  0.51806024  0.76531449  0.27083841     0.82700
C189        C  0.44624075  0.80095357  0.36103935     0.82300
O190        O  0.50851177  0.71760791  0.35800279    -0.78800
C191        C  0.32136844  0.62300786  0.36408006     0.83200
O192        O  0.52311223  0.76976110  0.29853776    -0.78900
C193        C  0.35200629  0.72755721  0.27284580     0.83300
C194        C  0.39346802  0.59930012  0.27441867     0.83600
O195        O  0.40262046  0.63527972  0.26219780    -0.81300
C196        C  0.85108871  0.41722740  0.42044117    -0.03700
C197        C  0.87524993  0.44378869  0.44419462    -0.09400
C198        C  0.92103861  0.46896640  0.44258658    -0.17100
C199        C  0.94336057  0.46794696  0.41722551     0.25000
C200        C  0.91934075  0.44124146  0.39362933    -0.18800
C201        C  0.87366960  0.41618828  0.39519250    -0.07700
C202        C  0.99079290  0.49327383  0.41543625    -0.14100
C203        C  0.03034740  0.51181048  0.41324227    -0.13900
C204        C  0.07715251  0.52885454  0.41048801     0.24900
C205        C  0.09659319  0.51007905  0.42716352    -0.19300
C206        C  0.13992155  0.52106945  0.42188983    -0.07700
C207        C  0.16500685  0.55127301  0.39988942    -0.03800
C208        C  0.14643929  0.57229260  0.38441016    -0.09100
C209        C  0.10263839  0.56098784  0.38962087    -0.16800
H210        H  0.85860564  0.44509542  0.46390086     0.11400
H211        H  0.93899739  0.48918430  0.46112149     0.10700
H212        H  0.93594381  0.43982178  0.37392828     0.10600
H213        H  0.85579857  0.39620431  0.37655920     0.11100
H214        H  0.07757573  0.48521431  0.44330872     0.11200
H215        H  0.15317857  0.50396963  0.43391757     0.11200
H216        H  0.16459896  0.59489612  0.36691044     0.11300
H217        H  0.08810332  0.57575924  0.37641775     0.10100
C218        C  0.66043875  0.31610456  0.41940417    -0.03700
C219        C  0.63690445  0.31888710  0.39557267    -0.09400
C220        C  0.59116742  0.29535866  0.39569280    -0.17100
C221        C  0.56829084  0.26831464  0.41946518     0.25000
C222        C  0.59160130  0.26466551  0.44299641    -0.18800
C223        C  0.63736836  0.28853850  0.44304292    -0.07700
C224        C  0.52102870  0.24564254  0.41996953    -0.14100
C225        C  0.48171351  0.22951776  0.41933943    -0.13900
C226        C  0.43561196  0.21478078  0.41672301     0.24900
C227        C  0.42274994  0.24049943  0.40123502    -0.19300
C228        C  0.37852596  0.22702567  0.39806956    -0.07700
C229        C  0.34603459  0.18757486  0.41056645    -0.03800
C230        C  0.35909562  0.16198951  0.42645933    -0.09100
C231        C  0.40364425  0.17536217  0.42928125    -0.16800
H232        H  0.65400034  0.33952738  0.37698663     0.11400
H233        H  0.57362978  0.29849513  0.37731585     0.10700
H234        H  0.57440964  0.24365798  0.46139527     0.10600
H235        H  0.65484469  0.28582459  0.46160965     0.11100
H236        H  0.44700360  0.27103732  0.39141851     0.11200
H237        H  0.36983725  0.24775640  0.38582835     0.11200
H238        H  0.33495801  0.13138065  0.43621137     0.11300
H239        H  0.41309848  0.15489700  0.44109813     0.10100
C240        C  0.23578595  0.20801854  0.35962066    -0.03700
C241        C  0.26922937  0.24416713  0.34470967    -0.09400
C242        C  0.26163317  0.27659345  0.33367395    -0.17100
C243        C  0.22064006  0.27301330  0.33737061     0.25000
C244        C  0.18612948  0.23510595  0.34942169    -0.18800
C245        C  0.19343325  0.20241386  0.36007616    -0.07700
C246        C  0.21654281  0.31117955  0.33483635    -0.14100
C247        C  0.21636990  0.34483073  0.33831767    -0.13900
C248        C  0.22044936  0.38590285  0.34658030     0.24900
C249        C  0.18540462  0.38747104  0.35979814    -0.19300
C250        C  0.19058161  0.42735869  0.36957820    -0.07700
C251        C  0.23099690  0.46606005  0.36629848    -0.03800
C252        C  0.26607610  0.46390908  0.35317869    -0.09100
C253        C  0.26078614  0.42408748  0.34343647    -0.16800
H254        H  0.30205239  0.24921613  0.34367219     0.11400
H255        H  0.28861279  0.30601991  0.32447420     0.10700
H256        H  0.15434378  0.23217928  0.35252118     0.10600
H257        H  0.16672760  0.17471356  0.37100599     0.11100
H258        H  0.15422088  0.35787197  0.36271139     0.11200
H259        H  0.16292703  0.42789152  0.37951191     0.11200
H260        H  0.29760782  0.49301733  0.35018777     0.11300
H261        H  0.28825934  0.42304011  0.33359782     0.10100
C262        C  0.98785316  0.77584704  0.42766070    -0.03700
C263        C  0.94464677  0.76197028  0.43633762    -0.09400
C264        C  0.91426406  0.71713580  0.43890073    -0.17100
C265        C  0.92710063  0.68597375  0.43347635     0.25000
C266        C  0.97062285  0.69990953  0.42629121    -0.18800
C267        C  0.00064528  0.74437427  0.42323404    -0.07700
C268        C  0.89579818  0.63968649  0.43355430    -0.14100
C269        C  0.87225342  0.60049762  0.43188805    -0.13900
C270        C  0.84669219  0.55353808  0.42871057     0.24900
C271        C  0.85166286  0.53323898  0.40361201    -0.19300
C272        C  0.82832040  0.48765850  0.40093875    -0.07700
C273        C  0.80016376  0.46173461  0.42354724    -0.03800
C274        C  0.79476912  0.48226857  0.44845235    -0.09100
C275        C  0.81774059  0.52788878  0.45093737    -0.16800
H276        H  0.93391637  0.78553444  0.43965099     0.11400
H277        H  0.88061450  0.70678428  0.44439452     0.10700
H278        H  0.98108767  0.67629686  0.42209603     0.10600
H279        H  0.03379617  0.75418606  0.41662564     0.11100
H280        H  0.87387397  0.55263212  0.38620997     0.11200
H281        H  0.83266061  0.47251014  0.38144713     0.11200
H282        H  0.77322823  0.46289488  0.46612704     0.11300
H283        H  0.81324740  0.54309748  0.47030262     0.10100
C284        C  0.52602162  0.96047817  0.38993908    -0.03700
C285        C  0.51932341  0.98909757  0.40801965    -0.09400
C286        C  0.55266283  0.03196274  0.41282598    -0.17100
C287        C  0.59357698  0.04745668  0.39964675     0.25000
C288        C  0.60139982  0.01873348  0.38254491    -0.18800
C289        C  0.56780217  0.97529648  0.37782173    -0.07700
C290        C  0.62566296  0.09351603  0.40251986    -0.14100
C291        C  0.64785805  0.13281527  0.40548099    -0.13900
C292        C  0.67042210  0.17997766  0.40896116     0.24900
C293        C  0.66881647  0.20618420  0.38654170    -0.19300
C294        C  0.68905408  0.25159580  0.39011212    -0.07700
C295        C  0.71118329  0.27160348  0.41621239    -0.03800
C296        C  0.71267935  0.24524783  0.43870668    -0.09100
C297        C  0.69241443  0.19974972  0.43510175    -0.16800
H298        H  0.48752710  0.97870888  0.41767833     0.11400
H299        H  0.54597412  0.05354958  0.42607651     0.10700
H300        H  0.63289288  0.03026404  0.37210104     0.10600
H301        H  0.57372857  0.95423208  0.36348270     0.11100
H302        H  0.65176269  0.19148306  0.36628638     0.11200
H303        H  0.68775503  0.27126937  0.37241873     0.11200
H304        H  0.72956353  0.25995835  0.45900256     0.11300
H305        H  0.69372662  0.18000377  0.45274887     0.10100
C306        C  0.10873162  0.87802416  0.36586277    -0.03700
C307        C  0.14669752  0.91932079  0.36404166    -0.09400
C308        C  0.18447408  0.92359557  0.35111490    -0.17100
C309        C  0.18434497  0.88705445  0.33912055     0.25000
C310        C  0.14539884  0.84699666  0.33770216    -0.18800
C311        C  0.10760823  0.84247137  0.35095963    -0.07700
C312        C  0.22516719  0.88856138  0.33446950    -0.14100
C313        C  0.25923485  0.88895899  0.33655328    -0.13900
C314        C  0.29830545  0.88819477  0.34361349     0.24900
C315        C  0.30097807  0.85074128  0.33781353    -0.19300
C316        C  0.33798254  0.84899834  0.34610259    -0.07700
C317        C  0.37275611  0.88469292  0.36052700    -0.03800
C318        C  0.36960483  0.92212071  0.36646479    -0.09100
C319        C  0.33248189  0.92376650  0.35809682    -0.16800
H320        H  0.14861155  0.94751263  0.37498226     0.11400
H321        H  0.21459716  0.95464753  0.35253704     0.10700
H322        H  0.14510060  0.81845512  0.32857810     0.10600
H323        H  0.07870053  0.81037897  0.35162818     0.11100
H324        H  0.27439273  0.82281988  0.32697729     0.11200
H325        H  0.33939376  0.81974754  0.34099871     0.11200
H326        H  0.39571779  0.95003761  0.37758261     0.11300
H327        H  0.33029605  0.95264077  0.36309668     0.10100
C328        C  0.80623932  0.32191491  0.42014912    -0.03700
C329        C  0.83131713  0.32424015  0.44464914    -0.09400
C330        C  0.85498720  0.30208204  0.44464544    -0.17100
C331        C  0.85349840  0.27682147  0.42037918     0.25000
C332        C  0.82884985  0.27473997  0.39578921    -0.18800
C333        C  0.80562265  0.29732293  0.39559256    -0.07700
C334        C  0.87662942  0.25255033  0.42071280    -0.14100
C335        C  0.89428812  0.23067095  0.41966277    -0.13900
C336        C  0.91248147  0.20211770  0.41594895     0.24900
C337        C  0.94026331  0.20007500  0.43698770    -0.19300
C338        C  0.95613104  0.17085531  0.43344090    -0.07700
C339        C  0.94448815  0.14335592  0.40867334    -0.03800
C340        C  0.91735513  0.14656749  0.38738931    -0.09100
C341        C  0.90152992  0.17548029  0.39105893    -0.16800
H342        H  0.83236836  0.34305693  0.46379423     0.11400
H343        H  0.87444492  0.30463214  0.46354563     0.10700
H344        H  0.82748031  0.25554594  0.37677312     0.10600
H345        H  0.78689823  0.29542384  0.37635722     0.11100
H346        H  0.94944977  0.22084644  0.45611193     0.11200
H347        H  0.97699793  0.16944099  0.45018681     0.11200
H348        H  0.90776516  0.12633238  0.36786835     0.11300
H349        H  0.88030812  0.17673632  0.37448883     0.10100
C350        C  0.57832405  0.59979085  0.39983376    -0.03700
C351        C  0.61150708  0.60558859  0.41945931    -0.09400
C352        C  0.62236553  0.57292863  0.42347885    -0.17100
C353        C  0.60042615  0.53350846  0.40798743     0.25000
C354        C  0.56565462  0.52633970  0.38949610    -0.18800
C355        C  0.55452258  0.55921911  0.38552197    -0.07700
C356        C  0.61609465  0.50243016  0.40991100    -0.14100
C357        C  0.63326143  0.48003135  0.41185125    -0.13900
C358        C  0.65685887  0.45606128  0.41398007     0.24900
C359        C  0.65317132  0.43150331  0.43911036    -0.19300
C360        C  0.67706793  0.40956057  0.44133614    -0.07700
C361        C  0.70519985  0.41193414  0.41849286    -0.03800
C362        C  0.70869602  0.43650486  0.39337563    -0.09100
C363        C  0.68477828  0.45832016  0.39114574    -0.16800
H364        H  0.63062110  0.63647789  0.43075808     0.11400
H365        H  0.64919018  0.57920304  0.43787035     0.10700
H366        H  0.54827772  0.49606266  0.37727865     0.10600
H367        H  0.52936998  0.55398639  0.36992104     0.11100
H368        H  0.63198285  0.42947062  0.45707045     0.11200
H369        H  0.67382581  0.39091055  0.46092823     0.11200
H370        H  0.72995009  0.43867213  0.37542772     0.11300
H371        H  0.68825344  0.47716967  0.37160801     0.10100
C372        C  0.92332840  0.01174631  0.35852831    -0.03700
C373        C  0.92455760  0.97265698  0.36085015    -0.09400
C374        C  0.88949685  0.93339423  0.35099462    -0.17100
C375        C  0.85359445  0.93300810  0.33798662     0.25000
C376        C  0.85480006  0.97240085  0.33206950    -0.18800
C377        C  0.88966679  0.01172944  0.34217464    -0.07700
C378        C  0.81279948  0.89277273  0.33670935    -0.14100
C379        C  0.77811259  0.86050877  0.34121288    -0.13900
C380        C  0.73754062  0.82382165  0.35064648     0.24900
C381        C  0.70175311  0.82922903  0.35714585    -0.19300
C382        C  0.66260580  0.79379859  0.36711265    -0.07700
C383        C  0.65900801  0.75264048  0.37095952    -0.03800
C384        C  0.69553884  0.74785808  0.36501716    -0.09100
C385        C  0.73448415  0.78321509  0.35483062    -0.16800
H386        H  0.95030749  0.97154180  0.37287331     0.11400
H387        H  0.88886578  0.90302594  0.35564047     0.10700
H388        H  0.82712292  0.97239860  0.32198351     0.10600
H389        H  0.88813641  0.04138809  0.33954269     0.11100
H390        H  0.70405596  0.86076422  0.35438828     0.11200
H391        H  0.63507884  0.79849105  0.37156377     0.11200
H392        H  0.69371713  0.71651588  0.36747956     0.11300
H393        H  0.76217528  0.77885228  0.35016028     0.10100
C394        C  0.90279720  0.25617130  0.23389127    -0.03700
C395        C  0.93319929  0.25999352  0.25515702    -0.09400
C396        C  0.94308527  0.22668662  0.25913101    -0.17100
C397        C  0.92307992  0.18894516  0.24177412     0.25000
C398        C  0.89098414  0.18376539  0.22149248    -0.18800
C399        C  0.88069072  0.21715354  0.21767144    -0.07700
C400        C  0.93867693  0.15799315  0.24342114    -0.14100
C401        C  0.95639900  0.13622899  0.24528029    -0.13900
C402        C  0.98130711  0.11382993  0.24756049     0.24900
C403        C  0.01062102  0.11813804  0.22516610    -0.19300
C404        C  0.03609451  0.09808552  0.22768412    -0.07700
C405        C  0.03294579  0.07358202  0.25275307    -0.03800
C406        C  0.00344223  0.06925892  0.27517433    -0.09100
C407        C  0.97778729  0.08919691  0.27257052    -0.16800
H408        H  0.95103912  0.28989944  0.26772250     0.11400
H409        H  0.96794023  0.23132706  0.27484776     0.10700
H410        H  0.87532453  0.15484869  0.20777451     0.10600
H411        H  0.85786222  0.21377694  0.20071385     0.11100
H412        H  0.01393471  0.13718090  0.20575855     0.11200
H413        H  0.05824575  0.10154377  0.21000554     0.11200
H414        H  0.00036660  0.05050849  0.29468386     0.11300
H415        H  0.95547448  0.08566851  0.29016701     0.10100
C416        C  0.13786852  0.98782307  0.25596743    -0.03700
C417        C  0.16354223  0.99117767  0.28037373    -0.09400
C418        C  0.18776831  0.96953469  0.28055511    -0.17100
C419        C  0.18632718  0.94386215  0.25651416     0.25000
C420        C  0.16117253  0.94089340  0.23200428    -0.18800
C421        C  0.13741433  0.96292428  0.23163585    -0.07700
C422        C  0.20962294  0.91969117  0.25701887    -0.14100
C423        C  0.22645057  0.89700406  0.25603086    -0.13900
C424        C  0.24192083  0.86606670  0.25273216     0.24900
C425        C  0.28122789  0.87338477  0.26532812    -0.19300
C426        C  0.29489978  0.84230577  0.26207016    -0.07700
C427        C  0.26966150  0.80376202  0.24580882    -0.03800
C428        C  0.23056400  0.79722075  0.23304421    -0.09100
C429        C  0.21687204  0.82785765  0.23656619    -0.16800
H430        H  0.16456099  0.01031792  0.29932134     0.11400
H431        H  0.20750121  0.97271889  0.29946165     0.10700
H432        H  0.15976096  0.92135876  0.21317847     0.10600
H433        H  0.11837510  0.96033512  0.21242245     0.11100
H434        H  0.30127046  0.90302675  0.27767425     0.11200
H435        H  0.32528661  0.84861677  0.27195869     0.11200
H436        H  0.21006898  0.76805509  0.22038215     0.11300
H437        H  0.18653097  0.82164691  0.22659942     0.10100
C438        C  0.24478076  0.67084167  0.19505584    -0.03700
C439        C  0.20713168  0.66786928  0.18245329    -0.09400
C440        C  0.17428936  0.62804676  0.17137053    -0.17100
C441        C  0.17890339  0.59099845  0.17252603     0.25000
C442        C  0.21807190  0.59472923  0.18221412    -0.18800
C443        C  0.25107723  0.63455571  0.19315548    -0.07700
C444        C  0.14087393  0.54855489  0.16981251    -0.14100
C445        C  0.10723858  0.51465567  0.17312163    -0.13900
C446        C  0.06636255  0.47748819  0.18154330     0.24900
C447        C  0.06544968  0.44177678  0.19540269    -0.19300
C448        C  0.02588379  0.40714945  0.20560754    -0.07700
C449        C  0.98677044  0.40800236  0.20216804    -0.03800
C450        C  0.98821083  0.44426373  0.18830902    -0.09100
C451        C  0.02772680  0.47870635  0.17810008    -0.16800
H452        H  0.20136395  0.69521965  0.18328666     0.11400
H453        H  0.14393517  0.62539950  0.16407105     0.10700
H454        H  0.22183459  0.56615496  0.18339086     0.10600
H455        H  0.27988711  0.63581845  0.20229943     0.11100
H456        H  0.09534928  0.44087142  0.19854595     0.11200
H457        H  0.02593498  0.37972136  0.21606476     0.11200
H458        H  0.95876922  0.44596507  0.18508306     0.11300
H459        H  0.02819093  0.50646594  0.16770973     0.10100
C460        C  0.87275779  0.62778053  0.21186292    -0.03700
C461        C  0.88064827  0.66345415  0.19405236    -0.09400
C462        C  0.91299728  0.70590244  0.20127538    -0.17100
C463        C  0.93810377  0.71379430  0.22657240     0.25000
C464        C  0.93237026  0.67816240  0.24359136    -0.18800
C465        C  0.89991990  0.63525197  0.23619714    -0.07700
C466        C  0.96642572  0.75872112  0.23582968    -0.14100
C467        C  0.98608223  0.79753800  0.24137557    -0.13900
C468        C  0.00604519  0.84447907  0.24538896     0.24900
C469        C  0.02530817  0.86452907  0.27216192    -0.19300
C470        C  0.04384170  0.90992078  0.27570043    -0.07700
C471        C  0.04311620  0.93576815  0.25255168    -0.03800
C472        C  0.02347631  0.91544112  0.22591883    -0.09100
C473        C  0.00519187  0.87023745  0.22236436    -0.16800
H474        H  0.85997784  0.65871857  0.17532038     0.11400
H475        H  0.91690644  0.73288613  0.18785831     0.10700
H476        H  0.95148068  0.68368948  0.26328187     0.10600
H477        H  0.89400430  0.60852490  0.25059129     0.11100
H478        H  0.02610168  0.84515031  0.29024823     0.11200
H479        H  0.05895827  0.92496695  0.29638444     0.11200
H480        H  0.02291254  0.93477627  0.20772858     0.11300
H481        H  0.99036738  0.85533909  0.20157523     0.10100
C482        C  0.32001893  0.44117712  0.24682234    -0.03700
C483        C  0.32560884  0.40854269  0.23287566    -0.09400
C484        C  0.29456385  0.36429709  0.23604007    -0.17100
C485        C  0.25695102  0.35145816  0.25297674     0.25000
C486        C  0.25084363  0.38357947  0.26693034    -0.18800
C487        C  0.28232585  0.42811849  0.26411128    -0.07700
C488        C  0.22503599  0.30529847  0.25551124    -0.14100
C489        C  0.20087386  0.26600936  0.25599106    -0.13900
C490        C  0.17481718  0.21866530  0.25514599     0.24900
C491        C  0.14624963  0.19539855  0.27823744    -0.19300
C492        C  0.12347522  0.14952446  0.27817334    -0.07700
C493        C  0.12843165  0.12623044  0.25473391    -0.03800
C494        C  0.15575815  0.14978224  0.23107500    -0.09100
C495        C  0.17905694  0.19556833  0.23142454    -0.16800
H496        H  0.35417350  0.41711074  0.21945769     0.11400
H497        H  0.29984517  0.34001450  0.22506270     0.10700
H498        H  0.22163070  0.37427369  0.27977241     0.10600
H499        H  0.27679264  0.45227518  0.27498895     0.11100
H500        H  0.14192468  0.21270023  0.29643142     0.11200
H501        H  0.10249251  0.13216600  0.29659594     0.11200
H502        H  0.15968101  0.13261963  0.21258459     0.11300
H503        H  0.20076762  0.21296036  0.21329988     0.10100
C504        C  0.71634508  0.55842556  0.19336007    -0.03700
C505        C  0.72012552  0.59985837  0.19052492    -0.09400
C506        C  0.68412834  0.60358091  0.18211703    -0.17100
C507        C  0.64407429  0.56602367  0.17638110     0.25000
C508        C  0.63990694  0.52475453  0.17937606    -0.18800
C509        C  0.67571845  0.52091879  0.18779751    -0.07700
C510        C  0.60627250  0.56930185  0.16939353    -0.14100
C511        C  0.57229689  0.56914858  0.16721970    -0.13900
C512        C  0.53052981  0.56595128  0.17125526     0.24900
C513        C  0.49231362  0.52592885  0.16670462    -0.19300
C514        C  0.45271008  0.51879616  0.17861367    -0.07700
C515        C  0.45121661  0.55170740  0.19523574    -0.03800
C516        C  0.48886423  0.59337234  0.19667827    -0.09100
C517        C  0.52838872  0.60020150  0.18511492    -0.16800
H518        H  0.75091323  0.62938518  0.19455043     0.11400
H519        H  0.68748028  0.63568054  0.18021606     0.10700
H520        H  0.60886841  0.49547832  0.17531935     0.10600
H521        H  0.67157011  0.48851953  0.18972155     0.11100
H522        H  0.49372203  0.49919065  0.15600090     0.11200
H523        H  0.42418092  0.48658727  0.17673607     0.11200
H524        H  0.48886500  0.61971625  0.20894703     0.11300
H525        H  0.55781616  0.63128259  0.18878297     0.10100
C526        C  0.18069207  0.08312719  0.25425221    -0.03700
C527        C  0.20287042  0.07996769  0.22946556    -0.09400
C528        C  0.24829370  0.10592326  0.22706638    -0.17100
C529        C  0.27238787  0.13581544  0.24925649     0.25000
C530        C  0.25052552  0.13925620  0.27408579    -0.18800
C531        C  0.20497151  0.11297706  0.27661871    -0.07700
C532        C  0.31947823  0.16208052  0.24642538    -0.14100
C533        C  0.35867298  0.18126751  0.24251261    -0.13900
C534        C  0.40493233  0.19983382  0.23645366     0.24900
C535        C  0.42019268  0.20712673  0.20735972    -0.19300
C536        C  0.46340439  0.21819279  0.20100901    -0.07700
C537        C  0.49203247  0.22248575  0.22368610    -0.03800
C538        C  0.47727967  0.21731903  0.25289460    -0.09100
C539        C  0.43403245  0.20618763  0.25924891    -0.16800
H540        H  0.18486180  0.05767341  0.21179102     0.11400
H541        H  0.26464168  0.10279768  0.20777282     0.10700
H542        H  0.26863419  0.16215652  0.29147259     0.10600
H543        H  0.18858734  0.11610522  0.29588406     0.11100
H544        H  0.39806626  0.20194631  0.18945712     0.11200
H545        H  0.47366671  0.22061733  0.17829574     0.11200
H546        H  0.49835800  0.21904287  0.27062838     0.11300
H547        H  0.42270230  0.20026555  0.28181975     0.10100
C548        C  0.67588256  0.84747365  0.24297702    -0.03700
C549        C  0.68874126  0.82631400  0.26345304    -0.09400
C550        C  0.73319033  0.83967146  0.26717588    -0.17100
C551        C  0.76534415  0.87451442  0.25067311     0.25000
C552        C  0.75270792  0.89552852  0.23033054    -0.18800
C553        C  0.70861750  0.88218008  0.22645415    -0.07700
C554        C  0.81144165  0.88963030  0.25430658    -0.14100
C555        C  0.85080965  0.90604761  0.25525848    -0.13900
C556        C  0.89814166  0.92911099  0.25473034     0.24900
C557        C  0.92081721  0.95580967  0.23077218    -0.19300
C558        C  0.96655602  0.97984027  0.23063823    -0.07700
C559        C  0.99034339  0.97806958  0.25468612    -0.03800
C560        C  0.96749044  0.95071732  0.27846700    -0.09100
C561        C  0.92172664  0.92618503  0.27836803    -0.16800
H562        H  0.66456048  0.79947042  0.27650295     0.11400
H563        H  0.74242045  0.82287262  0.28289613     0.10700
H564        H  0.77707283  0.92247843  0.21740380     0.10600
H565        H  0.70032356  0.89945311  0.21050460     0.11100
H566        H  0.90311312  0.95833096  0.21226434     0.11200
H567        H  0.98345269  0.00025891  0.21192176     0.11200
H568        H  0.98511366  0.94872871  0.29720418     0.11300
H569        H  0.90473407  0.90522215  0.29681733     0.10100
C570        C  0.56697065  0.87252271  0.19380991    -0.03700
C571        C  0.52410203  0.86560344  0.19330616    -0.09400
C572        C  0.51634803  0.89870938  0.18412394    -0.17100
C573        C  0.55104171  0.93856319  0.17458705     0.25000
C574        C  0.59290417  0.94389849  0.17179006    -0.18800
C575        C  0.60088255  0.91096246  0.18128403    -0.07700
C576        C  0.54541816  0.97600370  0.17298625    -0.14100
C577        C  0.54391493  0.00908530  0.17605705    -0.13900
C578        C  0.54720261  0.05045531  0.18251194     0.24900
C579        C  0.58816188  0.08825103  0.18145531    -0.19300
C580        C  0.59261292  0.12847591  0.18923342    -0.07700
C581        C  0.55605820  0.13158877  0.19827573    -0.03800
C582        C  0.51484249  0.09336900  0.19916035    -0.09100
C583        C  0.51049879  0.05297301  0.19137084    -0.16800
H584        H  0.49703280  0.83613944  0.20234341     0.11400
H585        H  0.48383154  0.89427145  0.18637345     0.10700
H586        H  0.61999997  0.97473715  0.16441074     0.10600
H587        H  0.63414273  0.91716325  0.18103928     0.11100
H588        H  0.61679799  0.08659272  0.17478648     0.11200
H589        H  0.62482557  0.15714376  0.18807833     0.11200
H590        H  0.48605231  0.09464423  0.20587210     0.11300
H591        H  0.47866645  0.02374446  0.19246813     0.10100
C592        C  0.82957985  0.87621326  0.06778150    -0.03700
C593        C  0.80881586  0.89027919  0.04799321    -0.09400
C594        C  0.76457829  0.87792811  0.05204463    -0.17100
C595        C  0.74076569  0.85165465  0.07599667     0.25000
C596        C  0.76219226  0.83980278  0.09659424    -0.18800
C597        C  0.80605097  0.85177978  0.09245704    -0.07700
C598        C  0.69378757  0.83346561  0.07829026    -0.14100
C599        C  0.65422570  0.81494395  0.08006210    -0.13900
C600        C  0.60679922  0.79020714  0.08130650     0.24900
C601        C  0.58406763  0.79161630  0.10632367    -0.19300
C602        C  0.53825095  0.76684401  0.10746881    -0.07700
C603        C  0.51455091  0.74029039  0.08360943    -0.03800
C604        C  0.53750145  0.73912297  0.05861194    -0.09100
C605        C  0.58319364  0.76378569  0.05750273    -0.16800
H606        H  0.82573318  0.90793439  0.02835126     0.11400
H607        H  0.74845092  0.88712885  0.03577015     0.10700
H608        H  0.74440428  0.81939646  0.11513097     0.10600
H609        H  0.82099656  0.83972408  0.10768253     0.11100
H610        H  0.60173664  0.81167927  0.12499060     0.11200
H611        H  0.52126357  0.76811153  0.12700435     0.11200
H612        H  0.51992520  0.71898453  0.03995591     0.11300
H613        H  0.60014504  0.76213369  0.03805903     0.10100
C614        C  0.00892937  0.50479345  0.07952898    -0.03700
C615        C  0.04145845  0.54190664  0.06468719    -0.09400
C616        C  0.08563844  0.55506140  0.06761865    -0.17100
C617        C  0.09869059  0.53150105  0.08532191     0.25000
C618        C  0.06677367  0.49448470  0.10035473    -0.18800
C619        C  0.02216223  0.48133186  0.09763367    -0.07700
C620        C  0.14494001  0.54609603  0.08754527    -0.14100
C621        C  0.18436286  0.56225659  0.08737018    -0.13900
C622        C  0.23173657  0.58491964  0.08581313     0.24900
C623        C  0.25355253  0.61000344  0.06103676    -0.19300
C624        C  0.29933758  0.63383214  0.06002095    -0.07700
C625        C  0.32408878  0.63338476  0.08393072    -0.03800
C626        C  0.30207420  0.60753640  0.10848747    -0.09100
C627        C  0.25627481  0.58339004  0.10936085    -0.16800
H628        H  0.03290559  0.56112701  0.05066769     0.11400
H629        H  0.10974014  0.58372572  0.05588222     0.10700
H630        H  0.07630069  0.47571096  0.11404478     0.10600
H631        H  0.99813102  0.45261465  0.10931515     0.11100
H632        H  0.23515281  0.61154608  0.04260787     0.11200
H633        H  0.31551773  0.65315346  0.04074911     0.11200
H634        H  0.32039551  0.60663444  0.12716856     0.11300
H635        H  0.24000389  0.56397724  0.12856359     0.10100
C636        C  0.90069686  0.52878452  0.02922851    -0.03700
C637        C  0.93514725  0.56677182  0.01662946    -0.09400
C638        C  0.92823662  0.60045573  0.00738359    -0.17100
C639        C  0.88689552  0.59624654  0.01044606     0.25000
C640        C  0.85149693  0.55666726  0.01971826    -0.18800
C641        C  0.85820184  0.52280839  0.02869250    -0.07700
C642        C  0.88292847  0.63464577  0.01024335    -0.14100
C643        C  0.88305880  0.66817152  0.01517042    -0.13900
C644        C  0.88753044  0.70915753  0.02415578     0.24900
C645        C  0.85103123  0.71169874  0.03335657    -0.19300
C646        C  0.85589743  0.75167589  0.04260934    -0.07700
C647        C  0.89741973  0.78954128  0.04271838    -0.03800
C648        C  0.93401007  0.78626351  0.03411562    -0.09100
C649        C  0.92903850  0.74632392  0.02490201    -0.16800
H650        H  0.96813831  0.57221088  0.01636849     0.11400
H651        H  0.95586544  0.63110685  0.00026113     0.10700
H652        H  0.81936968  0.55314706  0.02216684     0.10600
H653        H  0.83075862  0.49367905  0.03776950     0.11100
H654        H  0.81882997  0.68288955  0.03319698     0.11200
H655        H  0.82705611  0.75307712  0.04899704     0.11200
H656        H  0.96644599  0.81469598  0.03397951     0.11300
H657        H  0.95755103  0.74448410  0.01817115     0.10100
C658        C  0.46098585  0.78226449  0.08549627    -0.03700
C659        C  0.48823435  0.80814831  0.06250977    -0.09400
C660        C  0.50968487  0.85388028  0.06430100    -0.17100
C661        C  0.50393781  0.87452598  0.08895263     0.25000
C662        C  0.47605171  0.84883030  0.11165156    -0.18800
C663        C  0.45483927  0.80306649  0.10998976    -0.07700
C664        C  0.52771663  0.92190675  0.09111896    -0.14100
C665        C  0.55037307  0.96143033  0.09155404    -0.13900
C666        C  0.58183231  0.00783858  0.08962460     0.24900
C667        C  0.57568976  0.03953163  0.10426437    -0.19300
C668        C  0.60748666  0.08421584  0.10234830    -0.07700
C669        C  0.64547623  0.09779865  0.08526026    -0.03800
C670        C  0.65073801  0.06550902  0.07042719    -0.09100
C671        C  0.61947842  0.02127082  0.07269052    -0.16800
H672        H  0.49320838  0.79288591  0.04331847     0.11400
H673        H  0.53106085  0.87316372  0.04652798     0.10700
H674        H  0.47094693  0.86413924  0.13073525     0.10600
H675        H  0.43401437  0.78381587  0.12797531     0.11100
H676        H  0.54628098  0.02978275  0.11696786     0.11200
H677        H  0.60206251  0.10803514  0.11381524     0.11200
H678        H  0.67933431  0.07425955  0.05700848     0.11300
H679        H  0.62476268  0.99740643  0.06110856     0.10100
C680        C  0.37809289  0.59187982  0.08370491    -0.03700
C681        C  0.35508086  0.56831755  0.05872245    -0.09400
C682        C  0.33676613  0.52283369  0.05748830    -0.17100
C683        C  0.34124028  0.50015352  0.08115766     0.25000
C684        C  0.36415299  0.52348737  0.10617417    -0.18800
C685        C  0.38245655  0.56902771  0.10744237    -0.07700
C686        C  0.32046555  0.45287569  0.08014818    -0.14100
C687        C  0.29928288  0.41331818  0.07899993    -0.13900
C688        C  0.26779301  0.36695862  0.07770503     0.24900
C689        C  0.22823279  0.35141262  0.09279129    -0.19300
C690        C  0.19434349  0.30868716  0.08840127    -0.07700
C691        C  0.19919211  0.28039907  0.06882230    -0.03800
C692        C  0.23996639  0.29497389  0.05519313    -0.09100
C693        C  0.27410020  0.33823242  0.05951738    -0.16800
H694        H  0.35163050  0.58526107  0.04009031     0.11400
H695        H  0.31894460  0.50531100  0.03807586     0.10700
H696        H  0.36767922  0.50649128  0.12475658     0.10600
H697        H  0.40010819  0.58652183  0.12690365     0.11100
H698        H  0.22272931  0.37303622  0.10688477     0.11200
H699        H  0.16327719  0.29841284  0.09916988     0.11200
H700        H  0.24439486  0.27413435  0.03969633     0.11300
H701        H  0.30453601  0.34981894  0.04761420     0.10100
C702        C  0.04750185  0.21510630  0.03763207    -0.03700
C703        C  0.00863972  0.17902974  0.02737215    -0.09400
C704        C  0.97352123  0.18398080  0.01891877    -0.17100
C705        C  0.97667157  0.22496399  0.02049313     0.25000
C706        C  0.01509974  0.26114430  0.03058779    -0.18800
C707        C  0.05040399  0.25629866  0.03908081    -0.07700
C708        C  0.93900740  0.22866401  0.01402407    -0.14100
C709        C  0.90460768  0.22760195  0.01191625    -0.13900
C710        C  0.86179917  0.22204655  0.01528055     0.24900
C711        C  0.85719383  0.25684916  0.02555789    -0.19300
C712        C  0.81687486  0.24920415  0.03615186    -0.08000
C713        C  0.78097777  0.20636133  0.03727705    -0.03800
C714        C  0.78496730  0.17223083  0.02440106    -0.09100
C715        C  0.82529490  0.18008993  0.01351150    -0.16800
H716        H  0.00525892  0.14688483  0.02583527     0.11400
H717        H  0.94369205  0.15569898  0.01142684     0.10700
H718        H  0.01759523  0.29292666  0.03219326     0.10600
H719        H  0.07990941  0.28476841  0.04669514     0.11100
H720        H  0.88533457  0.28940749  0.02711687     0.11200
H721        H  0.81484822  0.27637857  0.04552358     0.11200
H722        H  0.75793742  0.13895737  0.02471068     0.11300
H723        H  0.82868963  0.15289994  0.00570092     0.10100
C724        C  0.60380830  0.46212218  0.07682179    -0.03700
C725        C  0.62809145  0.49953009  0.09436748    -0.09400
C726        C  0.61531041  0.53124038  0.09716855    -0.17100
C727        C  0.57785427  0.52568551  0.08279844     0.25000
C728        C  0.55366373  0.48859709  0.06541452    -0.18800
C729        C  0.56650858  0.45726737  0.06235403    -0.07700
C730        C  0.56326145  0.55721064  0.08568559    -0.14100
C731        C  0.54678169  0.58012436  0.08628834    -0.13900
C732        C  0.52316748  0.60379435  0.08545423     0.24900
C733        C  0.49737262  0.59958987  0.06104941    -0.19300
C734        C  0.47260262  0.62052152  0.06063995    -0.07700
C735        C  0.47287031  0.64555481  0.08480524    -0.03800
C736        C  0.49917904  0.65011478  0.10909527    -0.09100
C737        C  0.52439339  0.62960548  0.10930267    -0.16800
H738        H  0.65704526  0.50445011  0.10570555     0.11400
H739        H  0.63460508  0.55999247  0.11049181     0.10700
H740        H  0.52465530  0.48380141  0.05417450     0.10600
H741        H  0.54682006  0.42896304  0.04874308     0.11100
H742        H  0.49611623  0.57980729  0.04241303     0.11200
H743        H  0.45289302  0.61692755  0.04158895     0.11200
H744        H  0.49992344  0.66931881  0.12793086     0.11300
H745        H  0.54460385  0.63364923  0.12810671     0.10100
C746        C  0.23053354  0.90399536  0.04786883    -0.03700
C747        C  0.23826896  0.89613106  0.07679220    -0.09400
C748        C  0.24914735  0.86380773  0.08273056    -0.17100
C749        C  0.25269574  0.83909163  0.05979319     0.25000
C750        C  0.24287214  0.84538289  0.03105622    -0.18800
C751        C  0.23204582  0.87776538  0.02511402    -0.07700
C752        C  0.27080039  0.81088859  0.06526133    -0.14100
C753        C  0.28939087  0.79033384  0.06922276    -0.13900
C754        C  0.31469580  0.76861101  0.07287638     0.24900
C755        C  0.31175079  0.74596986  0.09881187    -0.19300
C756        C  0.33737102  0.72616314  0.10238898    -0.07700
C757        C  0.36627503  0.72878212  0.08006101    -0.03800
C758        C  0.36899058  0.75142133  0.05413759    -0.09100
C759        C  0.34343454  0.77117080  0.05058976    -0.16800
H760        H  0.23867189  0.91690398  0.09451399     0.11400
H761        H  0.25701402  0.85969171  0.10500873     0.10700
H762        H  0.24582773  0.82687119  0.01302929     0.10600
H763        H  0.22757449  0.88420687  0.00254724     0.11100
H764        H  0.28982916  0.74378552  0.11630727     0.11200
H765        H  0.33476108  0.70887227  0.12254625     0.11200
H766        H  0.39083022  0.75359931  0.03659026     0.11300
H767        H  0.34621137  0.78859750  0.03045757     0.10100
C768        C  0.32112548  0.05791895  0.02111529    -0.03700
C769        C  0.35884086  0.05394721  0.02052787    -0.09400
C770        C  0.39952810  0.08996305  0.01344914    -0.17100
C771        C  0.40288557  0.13017448  0.00677796     0.25000
C772        C  0.36551988  0.13420023  0.00687157    -0.18800
C773        C  0.32495841  0.09840604  0.01389540    -0.07700
C774        C  0.44476123  0.16843982  0.00209437    -0.14100
C775        C  0.47817863  0.20306391  0.00148275    -0.13900
C776        C  0.51535363  0.24555117  0.00641040     0.24900
C777        C  0.51174381  0.28290902  0.00250698    -0.19300
C778        C  0.54350869  0.32304409  0.01404960    -0.07700
C779        C  0.57912115  0.32603855  0.02966034    -0.03800
C780        C  0.58445024  0.28911563  0.03091921    -0.09100
C781        C  0.55248019  0.24905085  0.01968506    -0.16800
H782        H  0.35701736  0.02322044  0.02578063     0.11400
H783        H  0.42838787  0.08664188  0.01365688     0.10700
H784        H  0.36783146  0.16526633  0.00192196     0.10600
H785        H  0.29668515  0.10268723  0.01390922     0.11100
H786        H  0.48299691  0.28044769  0.99229075     0.11200
H787        H  0.53863495  0.35088715  0.01243630     0.11200
H788        H  0.61166680  0.29023287  0.04246993     0.11300
H789        H  0.55553873  0.22031351  0.02286325     0.10100
C790        C  0.24201617  0.96953864  0.55312519     0.79900
N791        N  0.20489827  0.97226195  0.54954598    -0.78400
C792        C  0.20851233  0.01073953  0.54013532     0.82300
N793        N  0.24860411  0.04479098  0.53358055    -0.78400
C794        C  0.28512728  0.04185563  0.53606762     0.82400
N795        N  0.28157216  0.00411831  0.54592949    -0.80100
C796        C  0.61654036  0.43782896  0.58239039     0.79900
N797        N  0.59664649  0.40782963  0.56063511    -0.78400
C798        C  0.60759249  0.37678995  0.55490323     0.82300
N799        N  0.63888063  0.37579679  0.57126170    -0.78400
C800        C  0.65885056  0.40469367  0.59337230     0.82400
N801        N  0.64744857  0.43577500  0.59926792    -0.80100
C802        C  0.17211291  0.25991069  0.55211377     0.79900
N803        N  0.16856694  0.22001500  0.54666600    -0.78400
C804        C  0.12882032  0.18556043  0.53884712     0.82300
N805        N  0.09450837  0.19212573  0.53530979    -0.78400
C806        C  0.09822286  0.23166787  0.53950971     0.82400
N807        N  0.13703190  0.26535210  0.54823036    -0.80100
C808        C  0.69116054  0.16104321  0.57581367     0.79900
N809        N  0.69281139  0.19343468  0.59328632    -0.78400
C810        C  0.72436758  0.23579710  0.58852362     0.82300
N811        N  0.75418490  0.24527214  0.56698961    -0.78400
C812        C  0.75383459  0.21350466  0.55014439     0.82400
N813        N  0.72230702  0.17140244  0.55472834    -0.80100
C814        C  0.96912546  0.51535944  0.58215371     0.79900
N815        N  0.95946557  0.53775333  0.56218338    -0.78400
C816        C  0.91761648  0.52752816  0.55723085     0.82300
N817        N  0.88507764  0.49452062  0.57258402    -0.78400
C818        C  0.89369028  0.47215047  0.59296707     0.82400
N819        N  0.93597027  0.48274320  0.59807504    -0.80100
C820        C  0.87242480  0.89861605  0.55168157     0.79900
N821        N  0.91261144  0.93508609  0.54758391    -0.78400
C822        C  0.94746377  0.93007951  0.54006446     0.82300
N823        N  0.94108114  0.88938232  0.53545140    -0.78400
C824        C  0.90126217  0.85347035  0.53823365     0.82400
N825        N  0.86714457  0.85829477  0.54668752    -0.80100
C826        C  0.44639091  0.75205921  0.58888685     0.02000
C827        C  0.40006088  0.72639931  0.58947341     0.02000
C828        C  0.37946728  0.67998028  0.58896318     0.02000
C829        C  0.40545174  0.65942783  0.58839357     0.02000
C830        C  0.45193808  0.68521618  0.58840919     0.02000
C831        C  0.47230276  0.73156641  0.58829022     0.02000
O832        O  0.81457270  0.46070913  0.69488357    -0.78800
C833        C  0.83702916  0.34195905  0.69857862     0.82200
O834        O  0.82044863  0.41566292  0.59828864    -0.79900
O835        O  0.73012617  0.26565230  0.63595347    -0.81400
O836        O  0.66006890  0.32221738  0.69008873    -0.81200
O837        O  0.74252975  0.43331044  0.70028967    -0.79800
Zn838      Zn  0.81767102  0.41131057  0.67241848     1.55700
O839        O  0.68920090  0.27914640  0.69541494    -0.81200
Cd840      Cd  0.71349408  0.37959737  0.67297169     1.59700
Cd841      Cd  0.75935627  0.36953146  0.61422526     1.59600
O842        O  0.68682041  0.39973040  0.63974830    -0.81200
O843        O  0.76011200  0.36773790  0.65798030    -1.91700
Cd844      Cd  0.74653560  0.30798196  0.67150866     1.59900
O845        O  0.71365876  0.38574372  0.59938119    -0.81200
O846        O  0.80026179  0.30857051  0.69226667    -0.79800
C847        C  0.85676477  0.44040719  0.61095983     0.82700
C848        C  0.78194859  0.46431144  0.70339088     0.82300
O849        O  0.84440586  0.38080343  0.69417328    -0.78800
C850        C  0.65669360  0.28554094  0.69677391     0.83200
O851        O  0.86053660  0.44112349  0.63875976    -0.78900
C852        C  0.68895785  0.39777322  0.61190591     0.83300
C853        C  0.73144888  0.27154062  0.60833562     0.83600
O854        O  0.74292185  0.30877958  0.59711176    -0.81300
C855        C  0.63709697  0.83630374  0.74722840     0.79900
N856        N  0.62880477  0.85602476  0.72462824    -0.78400
C857        C  0.58747536  0.84537657  0.71764736     0.82300
N858        N  0.55394316  0.81445698  0.73358189    -0.78400
C859        C  0.56117945  0.79461535  0.75646062     0.82400
N860        N  0.60300594  0.80578335  0.76364983    -0.80100
C861        C  0.53626659  0.20935406  0.70479272     0.79900
N862        N  0.53522088  0.17125443  0.69831774    -0.78400
C863        C  0.57232714  0.16992123  0.69363634     0.82300
N864        N  0.61106808  0.20738384  0.69550551    -0.78400
C865        C  0.61345496  0.24619725  0.70152775     0.82400
N866        N  0.57569654  0.24746079  0.70597087    -0.80100
C867        C  0.35210186  0.48549441  0.74232006     0.79900
N868        N  0.35483133  0.51903199  0.75902329    -0.78400
C869        C  0.38619772  0.56103512  0.75296375     0.82300
N870        N  0.41511930  0.56907912  0.73095862    -0.78400
C871        C  0.41371623  0.53613665  0.71483685     0.82400
N872        N  0.38212823  0.49449386  0.72065254    -0.80100
C873        C  0.82828746  0.58177671  0.72547900     0.79900
N874        N  0.79235794  0.58553324  0.72080112    -0.78400
C875        C  0.75433439  0.55081668  0.71196827     0.82300
N876        N  0.75216809  0.51183271  0.70856129    -0.78400
C877        C  0.78733803  0.50687496  0.71281611     0.82400
N878        N  0.82640432  0.54248398  0.72053041    -0.80100
C879        C  0.29322606  0.77355240  0.73530820     0.79900
N880        N  0.27462675  0.74404038  0.71312515    -0.78400
C881        C  0.28408974  0.71165139  0.70886951     0.82300
N882        N  0.31268831  0.70894663  0.72705378    -0.78400
C883        C  0.33114192  0.73720546  0.74962550     0.82400
N884        N  0.32105298  0.76949041  0.75416385    -0.80100
C885        C  0.91175264  0.30015794  0.72193166     0.79900
N886        N  0.87345685  0.30007284  0.71640949    -0.78400
C887        C  0.87529504  0.33809486  0.70754482     0.82300
N888        N  0.91475461  0.37419835  0.70300011    -0.78400
C889        C  0.95239275  0.37404737  0.70724957     0.82400
N890        N  0.95059818  0.33712862  0.71700694    -0.80100
C891        C  0.07150264  0.98449116  0.75355794     0.02000
C892        C  0.04571314  0.00516710  0.75445988     0.02000
C893        C  0.06622795  0.05160212  0.75472699     0.02000
C894        C  0.11262858  0.07723119  0.75490600     0.02000
C895        C  0.13838859  0.05653884  0.75375701     0.02000
C896        C  0.11786874  0.01017548  0.75338861     0.02000
C897        C  0.56865467  0.62502354  0.88604607     0.79900
N898        N  0.60812011  0.66188717  0.88284071    -0.78400
C899        C  0.61111004  0.69986446  0.87428164     0.82300
N900        N  0.57409094  0.70105596  0.86955642    -0.78400
C901        C  0.53414590  0.66502683  0.87245279     0.82400
N902        N  0.53113229  0.62606645  0.88004069    -0.80100
C903        C  0.94106176  0.09394600  0.92046216     0.79900
N904        N  0.92279086  0.06700719  0.89704081    -0.78400
C905        C  0.93586867  0.03846547  0.88864749     0.82300
N906        N  0.96754943  0.03679828  0.90411681    -0.78400
C907        C  0.98583760  0.06274021  0.92785089     0.82400
N908        N  0.97237758  0.09133933  0.93632989    -0.80100
C909        C  0.49038318  0.91423864  0.88349752     0.79900
N910        N  0.48894342  0.87503030  0.87909658    -0.78400
C911        C  0.45095327  0.83989971  0.86931436     0.82300
N912        N  0.41648067  0.84516495  0.86280145    -0.78400
C913        C  0.41828396  0.88400403  0.86593345     0.82400
N914        N  0.45514901  0.91822841  0.87662908    -0.80100
C915        C  0.01718588  0.81923814  0.90485224     0.79900
N916        N  0.04693182  0.83041556  0.88275259    -0.78400
C917        C  0.07865033  0.87249491  0.87856432     0.82300
N918        N  0.08010835  0.90379854  0.89656175    -0.78400
C919        C  0.05120825  0.89356228  0.91892976     0.82400
N920        N  0.02008637  0.85096658  0.92358134    -0.80100
C921        C  0.29489146  0.16766600  0.90930946     0.79900
N922        N  0.26276353  0.13752785  0.92725566    -0.78400
C923        C  0.22010730  0.12592818  0.92240540     0.82300
N924        N  0.21022273  0.14498489  0.90037572    -0.78400
C925        C  0.24170159  0.17558136  0.88304875     0.82400
N926        N  0.28380849  0.18663585  0.88765876    -0.80100
C927        C  0.20321633  0.55169848  0.88632229     0.79900
N928        N  0.24212465  0.58831956  0.87948203    -0.78400
C929        C  0.27767912  0.58406066  0.87274021     0.82300
N930        N  0.27311582  0.54362528  0.87156123    -0.78400
C931        C  0.23444446  0.50736432  0.87708157     0.82400
N932        N  0.19977684  0.51170706  0.88469514    -0.80100
C933        C  0.73158037  0.31451243  0.91735463     0.02000
C934        C  0.70701474  0.33638813  0.91671473     0.02000
C935        C  0.72897980  0.38292664  0.91634305     0.02000
C936        C  0.77545993  0.40736550  0.91620855     0.02000
C937        C  0.79992266  0.38538290  0.91651337     0.02000
C938        C  0.77796670  0.33909169  0.91776055     0.02000
O939        O  0.15298415  0.13604711  0.52242449    -0.78800
C940        C  0.17085717  0.01580238  0.53146670     0.82200
O941        O  0.14671955  0.07176728  0.92979509    -0.79900
O942        O  0.05508285  0.92215101  0.96675205    -0.81400
O943        O  0.99625672  0.00318043  0.52340792    -0.81200
O944        O  0.08150531  0.11264609  0.52619486    -0.79800
Zn945      Zn  0.14640060  0.06856718  0.00363678     1.55700
O946        O  0.02169745  0.95715816  0.53012444    -0.81200
Cd947      Cd  0.04213184  0.03768677  0.00635547     1.59700
Cd948      Cd  0.08603428  0.02668609  0.94631119     1.59600
O949        O  0.01347797  0.05555161  0.97350206    -0.81200
O950        O  0.08762842  0.02508994  0.98999415    -1.91700
Cd951      Cd  0.07233666  0.96464807  0.00242171     1.59900
O952        O  0.04057984  0.04355083  0.93241067    -0.81200
O953        O  0.13275533  0.98278859  0.52765093    -0.79800
C954        C  0.18379215  0.09607881  0.94162776     0.82700
C955        C  0.12140745  0.14214126  0.52970574     0.82300
O956        O  0.17975612  0.05440090  0.52450051    -0.78800
C957        C  0.99113431  0.96649541  0.53194052     0.83200
O958        O  0.18876475  0.09757684  0.96935013    -0.78900
C959        C  0.01566774  0.05469118  0.94561926     0.83300
C960        C  0.05793279  0.92886699  0.93918925     0.83600
O961        O  0.07004312  0.96648938  0.92843079    -0.81300
O962        O  0.47830934  0.79177383  0.85544854    -0.78800
C963        C  0.49686295  0.66992493  0.86280070     0.82200
O964        O  0.48741635  0.74003514  0.76123165    -0.79900
O965        O  0.39042023  0.59269548  0.79963238    -0.81400
O966        O  0.32404255  0.65677834  0.85402961    -0.81200
O967        O  0.40635493  0.76642157  0.85736003    -0.79800
Zn968      Zn  0.48056245  0.74010286  0.83516400     1.55700
O969        O  0.35059872  0.61140850  0.85866810    -0.81200
Cd970      Cd  0.37696086  0.71023000  0.83284960     1.59700
Cd971      Cd  0.42518632  0.69675347  0.77619482     1.59600
O972        O  0.35196999  0.72851384  0.79759999    -0.81200
O973        O  0.42329344  0.69658335  0.81992440    -1.91700
Cd974      Cd  0.40742215  0.63673696  0.83426925     1.59900
O975        O  0.38346751  0.71621830  0.75899106    -0.81200
O976        O  0.46034266  0.63696059  0.85553526    -0.79800
C977        C  0.52314855  0.76498545  0.77438630     0.82700
C978        C  0.44567634  0.79680001  0.86149721     0.82300
O979        O  0.50496867  0.70911572  0.85882902    -0.78800
C980        C  0.31995140  0.62030895  0.86212218     0.83200
O981        O  0.52543768  0.76755588  0.80226356    -0.78900
C982        C  0.35782436  0.72820797  0.76998968     0.83300
C983        C  0.39385507  0.59789988  0.77191861     0.83600
O984        O  0.40741741  0.63513324  0.76003775    -0.81300
C985        C  0.84871409  0.41089718  0.91426769    -0.03700
C986        C  0.87412911  0.43881644  0.93709854    -0.09400
C987        C  0.91962211  0.46462022  0.93399509    -0.17100
C988        C  0.94036532  0.46287934  0.90804701     0.25000
C989        C  0.91515070  0.43464755  0.88538522    -0.18800
C990        C  0.86970044  0.40884975  0.88847162    -0.07700
C991        C  0.98748411  0.48911814  0.90491825    -0.14100
C992        C  0.02698895  0.50890861  0.90264614    -0.13900
C993        C  0.07407143  0.52800024  0.90089684     0.24900
C994        C  0.09547322  0.51780259  0.92252747    -0.19300
C995        C  0.13941318  0.52985186  0.91900680    -0.07700
C996        C  0.16298930  0.55272494  0.89392197    -0.03800
C997        C  0.14235725  0.56552292  0.87313836    -0.09100
C998        C  0.09801695  0.55307433  0.87657224    -0.16800
H999        H  0.85864790  0.44089608  0.95716778     0.11400
H1000       H  0.93858860  0.48600889  0.95181413     0.10700
H1001       H  0.93060960  0.43267730  0.86526170     0.10600
H1002       H  0.85072702  0.38774853  0.87054748     0.11100
H1003       H  0.07755559  0.49838245  0.94138418     0.11200
H1004       H  0.15431888  0.51881451  0.93500821     0.11200
H1005       H  0.15942287  0.58201703  0.85322341     0.11300
H1006       H  0.08191206  0.56104471  0.85954104     0.10100
C1007       C  0.65812027  0.31047703  0.91683140    -0.03700
C1008       C  0.63411766  0.31214961  0.89286984    -0.09400
C1009       C  0.58831067  0.28943992  0.89364179    -0.17100
C1010       C  0.56575912  0.26434586  0.91824467     0.25000
C1011       C  0.58957030  0.26182546  0.94189875    -0.18800
C1012       C  0.63537248  0.28485802  0.94128519    -0.07700
C1013       C  0.51838782  0.24230350  0.91944640    -0.14100
C1014       C  0.47895948  0.22612036  0.91961337    -0.13900
C1015       C  0.43249153  0.21077989  0.91792732     0.24900
C1016       C  0.41842304  0.23506772  0.90192803    -0.19300
C1017       C  0.37393668  0.22101195  0.89959220    -0.07700
C1018       C  0.34216013  0.18230894  0.91340430    -0.03800
C1019       C  0.35642630  0.15813093  0.92979356    -0.09100
C1020       C  0.40129832  0.17211221  0.93179241    -0.16800
H1021       H  0.65091910  0.33145968  0.87372248     0.11400
H1022       H  0.57048572  0.29173701  0.87512835     0.10700
H1023       H  0.57274437  0.24226118  0.96089636     0.10600
H1024       H  0.65313514  0.28312991  0.96002962     0.11100
H1025       H  0.44193751  0.26494743  0.89103522     0.11200
H1026       H  0.36451602  0.24075519  0.88685799     0.11200
H1027       H  0.33298409  0.12810192  0.94051752     0.11300
H1028       H  0.41159174  0.15255939  0.94387274     0.10100
C1029       C  0.23113993  0.20265093  0.86388345    -0.03700
C1030       C  0.26447831  0.23833400  0.84855315    -0.09400
C1031       C  0.25750606  0.27149931  0.83821005    -0.17100
C1032       C  0.21722595  0.26909550  0.84301555     0.25000
C1033       C  0.18260835  0.23158270  0.85539453    -0.18800
C1034       C  0.18927057  0.19814560  0.86534974    -0.07700
C1035       C  0.21419079  0.30792841  0.84112588    -0.14100
C1036       C  0.21476727  0.34189973  0.84492406    -0.13900
C1037       C  0.21927103  0.38314600  0.85322484     0.24900
C1038       C  0.18241525  0.38659008  0.85988177    -0.19300
C1039       C  0.18728665  0.42671580  0.86877833    -0.07700
C1040       C  0.22915985  0.46381984  0.87104523    -0.03800
C1041       C  0.26598910  0.45964380  0.86490310    -0.09100
C1042       C  0.26101486  0.41955090  0.85607521    -0.16800
H1043       H  0.29690175  0.24248356  0.84670498     0.11400
H1044       H  0.28454049  0.30056976  0.82869654     0.10700
H1045       H  0.15133689  0.22951254  0.85925654     0.10600
H1046       H  0.16263698  0.17080632  0.87661005     0.11100
H1047       H  0.14997558  0.35836583  0.85807121     0.11200
H1048       H  0.15827249  0.42887239  0.87317963     0.11200
H1049       H  0.29867427  0.48749277  0.86648033     0.11300
H1050       H  0.28974909  0.41698582  0.85133856     0.10100
C1051       C  0.98394708  0.77229106  0.90882236    -0.03700
C1052       C  0.96273911  0.75576144  0.93589879    -0.09400
C1053       C  0.93397831  0.71070827  0.93946669    -0.17100
C1054       C  0.92576574  0.68168669  0.91601434     0.25000
C1055       C  0.94606216  0.69813025  0.88891421    -0.18800
C1056       C  0.97485045  0.74285970  0.88533722    -0.07700
C1057       C  0.89718259  0.63499549  0.91938342    -0.14100
C1058       C  0.87435922  0.59557334  0.91990741    -0.13900
C1059       C  0.84819155  0.54833962  0.91866126     0.24900
C1060       C  0.84951163  0.52581070  0.89357977    -0.19300
C1061       C  0.82491081  0.48010207  0.89241565    -0.07700
C1062       C  0.79890914  0.45620379  0.91644658    -0.03800
C1063       C  0.79721079  0.47892826  0.94138993    -0.09100
C1064       C  0.82157469  0.52469717  0.94242513    -0.16800
H1065       H  0.96915010  0.77741246  0.95446156     0.11400
H1066       H  0.91851926  0.69852897  0.96051702     0.10700
H1067       H  0.93998918  0.67624737  0.87052302     0.10600
H1068       H  0.99027416  0.75435019  0.86411005     0.11100
H1069       H  0.86979550  0.54357353  0.87497375     0.11200
H1070       H  0.82662655  0.46325078  0.87295687     0.11200
H1071       H  0.77755706  0.46115337  0.96020315     0.11300
H1072       H  0.81983745  0.54162918  0.96179587     0.10100
C1073       C  0.52922803  0.95383241  0.89495685    -0.03700
C1074       C  0.52244355  0.98035722  0.91499211    -0.09400
C1075       C  0.55537485  0.02313206  0.92073897    -0.17100
C1076       C  0.59579270  0.04046986  0.90649198     0.25000
C1077       C  0.60390932  0.01344875  0.88780139    -0.18800
C1078       C  0.57079310  0.97016131  0.88215536    -0.07700
C1079       C  0.62645619  0.08692171  0.90910459    -0.14100
C1080       C  0.64757663  0.12642018  0.91105097    -0.13900
C1081       C  0.66912063  0.17371501  0.91277741     0.24900
C1082       C  0.66708007  0.19768583  0.88899692    -0.19300
C1083       C  0.68682873  0.24328707  0.89070714    -0.07700
C1084       C  0.70884391  0.26566328  0.91627512    -0.03800
C1085       C  0.71050020  0.24151055  0.94019667    -0.09100
C1086       C  0.69082273  0.19585922  0.93843703    -0.16800
H1087       H  0.49063575  0.96869785  0.92501319     0.11400
H1088       H  0.54847212  0.04343617  0.93519095     0.10700
H1089       H  0.63499501  0.02643003  0.87651866     0.10600
H1090       H  0.57662820  0.95071521  0.86625550     0.11100
H1091       H  0.65020323  0.18110562  0.86908770     0.11200
H1092       H  0.68533235  0.26124951  0.87197614     0.11200
H1093       H  0.72720852  0.25807593  0.96014206     0.11300
H1094       H  0.69245319  0.17785855  0.95710480     0.10100
C1095       C  0.11608235  0.88293389  0.85884229    -0.03700
C1096       C  0.15371368  0.92460989  0.86003719    -0.09400
C1097       C  0.19325236  0.93127456  0.84853321    -0.17100
C1098       C  0.19545723  0.89677655  0.83508500     0.25000
C1099       C  0.15732442  0.85653580  0.83103828    -0.18800
C1100       C  0.11772559  0.84963040  0.84277754    -0.07700
C1101       C  0.23727722  0.90015933  0.83070385    -0.14100
C1102       C  0.27142939  0.90052049  0.83227818    -0.13900
C1103       C  0.30969841  0.89768160  0.83857380     0.24900
C1104       C  0.30848196  0.85775631  0.83513205    -0.19300
C1105       C  0.34391725  0.85346216  0.84385416    -0.07700
C1106       C  0.38104959  0.88905562  0.85641569    -0.03800
C1107       C  0.38227557  0.92933657  0.85932452    -0.09100
C1108       C  0.34672839  0.93355238  0.85049099    -0.16800
H1109       H  0.15361594  0.95117018  0.87195209     0.11400
H1110       H  0.22263505  0.96249715  0.85188384     0.10700
H1111       H  0.15876707  0.82955709  0.82074143     0.10600
H1112       H  0.08928276  0.81731665  0.84117018     0.11100
H1113       H  0.27982909  0.82971167  0.82611645     0.11200
H1114       H  0.34194344  0.82207311  0.84100183     0.11200
H1115       H  0.41042428  0.95743269  0.86871069     0.11300
H1116       H  0.34778105  0.96451252  0.85348337     0.10100
C1117       C  0.80359223  0.31621703  0.92069973    -0.03700
C1118       C  0.82455840  0.31847480  0.94728521    -0.09400
C1119       C  0.84585438  0.29440846  0.95109852    -0.17100
C1120       C  0.84644365  0.26775965  0.92841181     0.25000
C1121       C  0.82633384  0.26614080  0.90161223    -0.18800
C1122       C  0.80509862  0.29027786  0.89774554    -0.07700
C1123       C  0.86645439  0.24109332  0.93276056    -0.14100
C1124       C  0.88119392  0.21680569  0.93501195    -0.13900
C1125       C  0.89559725  0.18497393  0.93494505     0.24900
C1126       C  0.93823777  0.19634791  0.94314592    -0.19300
C1127       C  0.95272090  0.16595855  0.94023623    -0.07700
C1128       C  0.92493202  0.12423870  0.92845489    -0.03800
C1129       C  0.88175481  0.11272824  0.92137652    -0.09100
C1130       C  0.86722538  0.14271881  0.92472446    -0.16800
H1131       H  0.82358437  0.33816237  0.96527213     0.11400
H1132       H  0.86145468  0.29626253  0.97181953     0.10700
H1133       H  0.82653959  0.24573334  0.88383990     0.10600
H1134       H  0.78914060  0.28815163  0.87708738     0.11100
H1135       H  0.96064188  0.22901286  0.95098273     0.11200
H1136       H  0.98613105  0.17575970  0.94578118     0.11200
H1137       H  0.85940592  0.08071351  0.91249743     0.11300
H1138       H  0.83417776  0.13334664  0.91837491     0.10100
C1139       C  0.56904187  0.58496619  0.89519860    -0.03700
C1140       C  0.59795361  0.58874834  0.91760891    -0.09400
C1141       C  0.60839013  0.55595242  0.92219707    -0.17100
C1142       C  0.59042646  0.51870979  0.90435506     0.25000
C1143       C  0.55968459  0.51343359  0.88290295    -0.18800
C1144       C  0.54886617  0.54635544  0.87841241    -0.07700
C1145       C  0.60710443  0.48868896  0.90662433    -0.14100
C1146       C  0.62575769  0.46784356  0.90878348    -0.13900
C1147       C  0.65154246  0.44635300  0.91092810     0.24900
C1148       C  0.64889517  0.42204898  0.93591868    -0.19300
C1149       C  0.67459437  0.40210618  0.93798803    -0.07700
C1150       C  0.70318301  0.40601547  0.91503255    -0.03800
C1151       C  0.70592992  0.43069182  0.89017368    -0.09100
C1152       C  0.68041587  0.45076510  0.88818607    -0.16800
H1153       H  0.61435287  0.61835312  0.93063405     0.11400
H1154       H  0.63221572  0.56070198  0.93879027     0.10700
H1155       H  0.54563151  0.48489866  0.86878658     0.10600
H1156       H  0.52726989  0.54301824  0.86059110     0.11100
H1157       H  0.62700986  0.41852229  0.95380446     0.11200
H1158       H  0.67199457  0.38334698  0.95739648     0.11200
H1159       H  0.72747892  0.43394063  0.87214169     0.11300
H1160       H  0.68310989  0.46963761  0.86881529     0.10100
C1161       C  0.90988548  0.00357724  0.86718333    -0.03700
C1162       C  0.91770623  0.96847038  0.86346143    -0.09400
C1163       C  0.88550186  0.92904222  0.85159120    -0.17100
C1164       C  0.84587332  0.92479218  0.84255621     0.25000
C1165       C  0.84012242  0.96119541  0.84266620    -0.18800
C1166       C  0.87207068  0.00055622  0.85485486    -0.07700
C1167       C  0.80845489  0.88208354  0.83968823    -0.14100
C1168       C  0.77523276  0.84781225  0.84279771    -0.13900
C1169       C  0.73431411  0.81011556  0.85025114     0.24900
C1170       C  0.69559726  0.81050579  0.84515354    -0.19300
C1171       C  0.65565824  0.77498442  0.85353764    -0.07700
C1172       C  0.65388643  0.73851161  0.86728552    -0.03800
C1173       C  0.69310765  0.73864822  0.87269533    -0.09100
C1174       C  0.73314058  0.77438111  0.86427160    -0.16800
H1175       H  0.94676897  0.96988923  0.87226562     0.11400
H1176       H  0.89009109  0.90092223  0.85179083     0.10700
H1177       H  0.80941117  0.95810831  0.83577592     0.10600
H1178       H  0.86531035  0.02716679  0.85696264     0.11100
H1179       H  0.69628046  0.83834433  0.83471936     0.11200
H1180       H  0.62616330  0.77599091  0.84890208     0.11200
H1181       H  0.69286720  0.71114389  0.88326361     0.11300
H1182       H  0.76311748  0.77419448  0.86874986     0.10100
C1183       C  0.91374920  0.26109885  0.73205282    -0.03700
C1184       C  0.94837834  0.26778069  0.75055626    -0.09400
C1185       C  0.95800248  0.23450121  0.75564774    -0.17100
C1186       C  0.93337406  0.19357093  0.74235541     0.25000
C1187       C  0.89726097  0.18567506  0.72504081    -0.18800
C1188       C  0.88734636  0.21920043  0.72001593    -0.07700
C1189       C  0.94787669  0.16168978  0.74502323    -0.14100
C1190       C  0.96487906  0.13919402  0.74720643    -0.13900
C1191       C  0.98909982  0.11586607  0.74908312     0.24900
C1192       C  0.01709184  0.11892569  0.72608358    -0.19300
C1193       C  0.04188088  0.09802696  0.72802099    -0.07700
C1194       C  0.03930730  0.07367465  0.75304871    -0.03800
C1195       C  0.01108433  0.07048454  0.77607843    -0.09100
C1196       C  0.98620829  0.09143541  0.77410895    -0.16800
H1197       H  0.96941744  0.29964627  0.76015339     0.11400
H1198       H  0.98591750  0.24134894  0.76908117     0.10700
H1199       H  0.87782803  0.15421797  0.71450989     0.10600
H1200       H  0.86091944  0.21318664  0.70535064     0.11100
H1201       H  0.01998037  0.13774266  0.70664223     0.11200
H1202       H  0.06317735  0.10081914  0.70993327     0.11200
H1203       H  0.00855322  0.05200211  0.79561670     0.11300
H1204       H  0.96497658  0.08882386  0.79219873     0.10100
C1205       C  0.14512800  0.98848946  0.75260849    -0.03700
C1206       C  0.17253300  0.99302005  0.77625276    -0.09400
C1207       C  0.19747346  0.97212220  0.77571371    -0.17100
C1208       C  0.19509592  0.94601833  0.75169257     0.25000
C1209       C  0.16817536  0.94181092  0.72794461    -0.18800
C1210       C  0.14361484  0.96305261  0.72830839    -0.07700
C1211       C  0.21910482  0.92252155  0.75152238    -0.14100
C1212       C  0.23639277  0.90026822  0.75007104    -0.13900
C1213       C  0.25232877  0.86975234  0.74632263     0.24900
C1214       C  0.28961702  0.87521109  0.76095583    -0.19300
C1215       C  0.30316757  0.84404479  0.75777485    -0.07700
C1216       C  0.27999213  0.80736285  0.73944606    -0.03800
C1217       C  0.24321560  0.80292820  0.72440209    -0.09100
C1218       C  0.22951020  0.83357558  0.72792840    -0.16800
H1219       H  0.17433108  0.01249207  0.79520518     0.11400
H1220       H  0.21841853  0.97613581  0.79409214     0.10700
H1221       H  0.16597349  0.92187577  0.70916008     0.10600
H1222       H  0.12315623  0.95943933  0.70969658     0.11100
H1223       H  0.30815498  0.90345856  0.77484971     0.11200
H1224       H  0.33182168  0.84879967  0.76943461     0.11200
H1225       H  0.22440901  0.77530358  0.71004895     0.11300
H1226       H  0.20079418  0.82886044  0.71632890     0.10100
C1227       C  0.25655597  0.67419742  0.68950274    -0.03700
C1228       C  0.22250069  0.67346724  0.67322250    -0.09400
C1229       C  0.18827745  0.63379986  0.66289746    -0.17100
C1230       C  0.18802610  0.59481367  0.66870852     0.25000
C1231       C  0.22399850  0.59592724  0.68208387    -0.18800
C1232       C  0.25849543  0.63547418  0.69193599    -0.07700
C1233       C  0.14819314  0.55384729  0.66644368    -0.14100
C1234       C  0.11412329  0.52055320  0.67006465    -0.13900
C1235       C  0.07360906  0.48319265  0.67869063     0.24900
C1236       C  0.07359029  0.44893563  0.69399783    -0.19300
C1237       C  0.03424204  0.41366927  0.70384604    -0.07700
C1238       C  0.99446576  0.41243095  0.69856388    -0.03800
C1239       C  0.99501245  0.44738435  0.68343183    -0.09100
C1240       C  0.03434311  0.48253213  0.67365136    -0.16800
H1241       H  0.22037348  0.70279902  0.67060806     0.11400
H1242       H  0.16046099  0.63316819  0.65253438     0.10700
H1243       H  0.22407092  0.56589017  0.68667735     0.10600
H1244       H  0.28452900  0.63483570  0.70391758     0.11100
H1245       H  0.10399527  0.44959736  0.69844900     0.11200
H1246       H  0.03497319  0.38737857  0.71546280     0.11200
H1247       H  0.96503523  0.44748548  0.67886205     0.11300
H1248       H  0.03413901  0.50930752  0.66229818     0.10100
C1249       C  0.86869979  0.62200468  0.73421411    -0.03700
C1250       C  0.90608480  0.64017467  0.71618867    -0.09400
C1251       C  0.93888249  0.68411553  0.71985415    -0.17100
C1252       C  0.93473926  0.71009314  0.74171791     0.25000
C1253       C  0.89881549  0.69112388  0.76080875    -0.18800
C1254       C  0.86604866  0.64761160  0.75701115    -0.07700
C1255       C  0.96466605  0.75687387  0.74323482    -0.14100
C1256       C  0.98608895  0.79640998  0.74484958    -0.13900
C1257       C  0.00870434  0.84375716  0.74684601     0.24900
C1258       C  0.03256954  0.86529484  0.77204875    -0.19300
C1259       C  0.05301365  0.91097118  0.77430714    -0.07700
C1260       C  0.04977964  0.93574712  0.75140655    -0.03800
C1261       C  0.02600263  0.91402088  0.72616255    -0.09100
C1262       C  0.00561321  0.86841292  0.72391845    -0.16800
H1263       H  0.90836260  0.62151638  0.69800351     0.11400
H1264       H  0.96635344  0.69833507  0.70478831     0.10700
H1265       H  0.89497076  0.71061918  0.77775067     0.10600
H1266       H  0.83722751  0.63459079  0.77087516     0.11100
H1267       H  0.03514455  0.84678248  0.79004152     0.11200
H1268       H  0.07114455  0.92701935  0.79396551     0.11200
H1269       H  0.02330571  0.93247899  0.70818836     0.11300
H1270       H  0.98720316  0.85234978  0.70434449     0.10100
C1271       C  0.31857804  0.43907184  0.74818083    -0.03700
C1272       C  0.32174793  0.40531790  0.73380889    -0.09400
C1273       C  0.29063905  0.36155036  0.73853759    -0.17100
C1274       C  0.25542810  0.35030428  0.75756344     0.25000
C1275       C  0.25168388  0.38348109  0.77203806    -0.18800
C1276       C  0.28322046  0.42761757  0.76754709    -0.07700
C1277       C  0.22360476  0.30453886  0.76150987    -0.14100
C1278       C  0.20041064  0.26519760  0.76199607    -0.13900
C1279       C  0.17663754  0.21799038  0.75989960     0.24900
C1280       C  0.14872309  0.19228377  0.78254479    -0.19300
C1281       C  0.12800024  0.14658870  0.78095911    -0.07700
C1282       C  0.13427251  0.12597649  0.75639527    -0.03800
C1283       C  0.16116160  0.15194859  0.73332417    -0.09100
C1284       C  0.18252689  0.19757783  0.73522001    -0.16800
H1285       H  0.34844165  0.41258454  0.71883373     0.11400
H1286       H  0.29400049  0.33635107  0.72716297     0.10700
H1287       H  0.22433265  0.37532051  0.78658389     0.10600
H1288       H  0.27965001  0.45266150  0.77891883     0.11100
H1289       H  0.14315394  0.20752125  0.80146072     0.11200
H1290       H  0.10720742  0.12725424  0.79893084     0.11200
H1291       H  0.16586182  0.13685616  0.71394492     0.11300
H1292       H  0.20382122  0.21697434  0.71744720     0.10100
C1293       C  0.71703164  0.55593848  0.70283024    -0.03700
C1294       C  0.71922319  0.59679995  0.70429417    -0.09400
C1295       C  0.68449640  0.60148649  0.69415990    -0.17100
C1296       C  0.64744985  0.56550534  0.68233814     0.25000
C1297       C  0.64509936  0.52490372  0.68067734    -0.18800
C1298       C  0.67955491  0.52008818  0.69082503    -0.07700
C1299       C  0.60996790  0.56871277  0.67438461    -0.14100
C1300       C  0.57536243  0.56693019  0.67127746    -0.13900
C1301       C  0.53220709  0.56073788  0.67391209     0.24900
C1302       C  0.49622160  0.51834034  0.67347159    -0.19300
C1303       C  0.45580547  0.51048336  0.68421817    -0.07700
C1304       C  0.45120405  0.54508483  0.69560208    -0.03800
C1305       C  0.48643804  0.58811039  0.69295452    -0.09100
C1306       C  0.52686335  0.59575776  0.68258008    -0.16800
H1307       H  0.74768439  0.62508658  0.71321574     0.11400
H1308       H  0.68631074  0.63295687  0.69586061     0.10700
H1309       H  0.61633606  0.49676828  0.67184817     0.10600
H1310       H  0.67678111  0.48821247  0.68911875     0.11100
H1311       H  0.50018702  0.49095908  0.66697214     0.11200
H1312       H  0.42931732  0.47702899  0.68572658     0.11200
H1313       H  0.48395044  0.61561818  0.70115878     0.11300
H1314       H  0.55464508  0.62861762  0.68333055     0.10100
C1315       C  0.18694719  0.08334064  0.75062589    -0.03700
C1316       C  0.20684924  0.08277402  0.72395100    -0.09400
C1317       C  0.25217425  0.10795323  0.72039782    -0.17100
C1318       C  0.27846359  0.13411918  0.74344815     0.25000
C1319       C  0.25882250  0.13488404  0.77018487    -0.18800
C1320       C  0.21328839  0.10970911  0.77374107    -0.07700
C1321       C  0.32550185  0.15876093  0.73953966    -0.14100
C1322       C  0.36418088  0.17563832  0.73398647    -0.13900
C1323       C  0.40850232  0.18927419  0.72469440     0.24900
C1324       C  0.41482818  0.16627575  0.70194067    -0.19300
C1325       C  0.45682082  0.17515600  0.69444511    -0.07700
C1326       C  0.49366074  0.20739583  0.70949013    -0.03800
C1327       C  0.48755819  0.23224756  0.73127848    -0.09100
C1328       C  0.44508011  0.22303442  0.73896100    -0.16800
H1329       H  0.18713509  0.06289061  0.70582063     0.11400
H1330       H  0.26677306  0.10683911  0.69964914     0.10700
H1331       H  0.27865581  0.15475065  0.78828211     0.10600
H1332       H  0.19858491  0.11062135  0.79448075     0.11100
H1333       H  0.38706699  0.14026208  0.69059935     0.11200
H1334       H  0.46037001  0.15556031  0.67744537     0.11200
H1335       H  0.51522898  0.25693937  0.74340868     0.11300
H1336       H  0.44072659  0.24118017  0.75662254     0.10100
C1337       C  0.68343513  0.85022545  0.75379607    -0.03700
C1338       C  0.69563642  0.82278963  0.76815539    -0.09400
C1339       C  0.74006907  0.83560952  0.77123253    -0.17100
C1340       C  0.77263170  0.87620262  0.76042604     0.25000
C1341       C  0.76053883  0.90400266  0.74699823    -0.18800
C1342       C  0.71654924  0.89118681  0.74364424    -0.07700
C1343       C  0.81857651  0.88982360  0.76204471    -0.14100
C1344       C  0.85787525  0.90575747  0.76125519    -0.13900
C1345       C  0.90502927  0.92873475  0.75884492     0.24900
C1346       C  0.92565809  0.95563585  0.73455134    -0.19300
C1347       C  0.97131803  0.97979459  0.73277990    -0.07700
C1348       C  0.99701402  0.97796304  0.75554072    -0.03800
C1349       C  0.97616126  0.95043291  0.77963728    -0.09100
C1350       C  0.93050050  0.92576135  0.78115324    -0.16800
H1351       H  0.67097534  0.79105259  0.77612807     0.11400
H1352       H  0.74895388  0.81366163  0.78162553     0.10700
H1353       H  0.78522439  0.93548246  0.73860942     0.10600
H1354       H  0.70849295  0.91338470  0.73270838     0.11100
H1355       H  0.90643106  0.95824205  0.71708540     0.11200
H1356       H  0.98665512  0.00035302  0.71383342     0.11200
H1357       H  0.99529089  0.94842855  0.79740371     0.11300
H1358       H  0.91508497  0.90476662  0.79986978     0.10100
C1359       C  0.57958628  0.87248778  0.69668960    -0.03700
C1360       C  0.53815982  0.86895591  0.69545340    -0.09400
C1361       C  0.53313283  0.90162566  0.68217154    -0.17100
C1362       C  0.56905511  0.93748702  0.66927547     0.25000
C1363       C  0.60937676  0.93909654  0.66782578    -0.18800
C1364       C  0.61465867  0.90669603  0.68143361    -0.07700
C1365       C  0.56658643  0.97586836  0.66286421    -0.14100
C1366       C  0.56612624  0.00967490  0.66295582    -0.13900
C1367       C  0.56745148  0.05040286  0.66818178     0.24900
C1368       C  0.60773340  0.08866367  0.67145551    -0.19300
C1369       C  0.60934862  0.12759837  0.67959809    -0.07700
C1370       C  0.57057082  0.12868819  0.68472726    -0.03800
C1371       C  0.53018685  0.09015730  0.68077685    -0.09100
C1372       C  0.52868949  0.05124877  0.67259613    -0.16800
H1373       H  0.51035670  0.84292199  0.70676751     0.11400
H1374       H  0.50190923  0.90035857  0.68372787     0.10700
H1375       H  0.63746417  0.96694082  0.65806184     0.10600
H1376       H  0.64686686  0.91012982  0.68172946     0.11100
H1377       H  0.63792327  0.08822626  0.66822604     0.11200
H1378       H  0.64098531  0.15667091  0.68218536     0.11200
H1379       H  0.49972702  0.08990625  0.68427818     0.11300
H1380       H  0.49734923  0.02167254  0.67029435     0.10100
C1381       C  0.83328052  0.90060969  0.56087343    -0.03700
C1382       C  0.81190823  0.91397529  0.54109725    -0.09400
C1383       C  0.76817307  0.90271468  0.54605806    -0.17100
C1384       C  0.74554077  0.87817992  0.57088904     0.25000
C1385       C  0.76775452  0.86729340  0.59148821    -0.18800
C1386       C  0.81112345  0.87817839  0.58644193    -0.07700
C1387       C  0.69870691  0.85990207  0.57393004    -0.14100
C1388       C  0.65928247  0.84032422  0.57668963    -0.13900
C1389       C  0.61222947  0.81351390  0.57971478     0.24900
C1390       C  0.59111910  0.81395570  0.60582790    -0.19300
C1391       C  0.54575943  0.78689885  0.60888041    -0.07700
C1392       C  0.52092680  0.75892744  0.58587892    -0.03800
C1393       C  0.54225907  0.75853596  0.55982736    -0.09100
C1394       C  0.58752632  0.78562121  0.55677354    -0.16800
H1395       H  0.82784419  0.93007979  0.52080789     0.11400
H1396       H  0.75138903  0.91110230  0.52977699     0.10700
H1397       H  0.75078934  0.84815881  0.61067261     0.10600
H1398       H  0.82656661  0.86660091  0.60161590     0.11100
H1399       H  0.60969512  0.83513830  0.62384079     0.11200
H1400       H  0.52995025  0.78785005  0.62910556     0.11200
H1401       H  0.52369679  0.73757400  0.54173504     0.11300
H1402       H  0.60328752  0.78474062  0.53650146     0.10100
C1403       C  0.01585408  0.52820955  0.58646924    -0.03700
C1404       C  0.04882334  0.57033899  0.57807717    -0.09400
C1405       C  0.09295506  0.58256351  0.57980153    -0.17100
C1406       C  0.10537271  0.55299213  0.58975247     0.25000
C1407       C  0.07292101  0.51105319  0.59861210    -0.18800
C1408       C  0.02842478  0.49879618  0.59715123    -0.07700
C1409       C  0.15146867  0.56637746  0.59033183    -0.14100
C1410       C  0.19079667  0.58175272  0.58979742    -0.13900
C1411       C  0.23818817  0.60409467  0.58869245     0.24900
C1412       C  0.26080822  0.63282407  0.56558567    -0.19300
C1413       C  0.30658737  0.65665923  0.56535913    -0.07700
C1414       C  0.33057311  0.65292459  0.58857799    -0.03800
C1415       C  0.30774987  0.62343322  0.61141905    -0.09100
C1416       C  0.26196368  0.59883615  0.61124553    -0.16800
H1417       H  0.04051849  0.59401205  0.56993541     0.11400
H1418       H  0.11748568  0.61511815  0.57299981     0.10700
H1419       H  0.08194302  0.48774590  0.60642484     0.10600
H1420       H  0.00393411  0.46610906  0.60367387     0.11100
H1421       H  0.24304557  0.63711969  0.54784293     0.11200
H1422       H  0.32335578  0.67844274  0.54719428     0.11200
H1423       H  0.32539443  0.61969670  0.62946902     0.11300
H1424       H  0.24509954  0.57600519  0.62884718     0.10100
C1425       C  0.90779858  0.55578622  0.53864412    -0.03700
C1426       C  0.94178765  0.59453320  0.52649165    -0.09400
C1427       C  0.93295819  0.62550686  0.51431521    -0.17100
C1428       C  0.89017497  0.61804959  0.51409982     0.25000
C1429       C  0.85584121  0.57832851  0.52416562    -0.18800
C1430       C  0.86448810  0.54714356  0.53608851    -0.07700
C1431       C  0.88280944  0.65374713  0.50853619    -0.14100
C1432       C  0.88077815  0.68672054  0.50880025    -0.13900
C1433       C  0.88460913  0.72861834  0.51373327     0.24900
C1434       C  0.84810376  0.73210963  0.52155721    -0.19300
C1435       C  0.85327977  0.77271138  0.52964182    -0.07700
C1436       C  0.89512065  0.81014073  0.53007590    -0.03800
C1437       C  0.93140196  0.80618362  0.52166604    -0.09100
C1438       C  0.92612980  0.76573193  0.51361726    -0.16800
H1439       H  0.97543985  0.60215156  0.52795845     0.11400
H1440       H  0.95980885  0.65639632  0.50676497     0.10700
H1441       H  0.82266293  0.57243218  0.52431443     0.10600
H1442       H  0.83745692  0.51750113  0.54495226     0.11100
H1443       H  0.81584805  0.70338751  0.52197998     0.11200
H1444       H  0.82465262  0.77471051  0.53571241     0.11200
H1445       H  0.96405776  0.83426877  0.52153089     0.11300
H1446       H  0.95462111  0.76324768  0.50785183     0.10100
C1447       C  0.46797640  0.80078466  0.58807834    -0.03700
C1448       C  0.49169184  0.82389673  0.56311733    -0.09400
C1449       C  0.51347795  0.86962145  0.56272628    -0.17100
C1450       C  0.51132202  0.89289233  0.58708913     0.25000
C1451       C  0.48651691  0.86996334  0.61166033    -0.18800
C1452       C  0.46524464  0.82420246  0.61227487    -0.07700
C1453       C  0.53633485  0.94015869  0.58725880    -0.14100
C1454       C  0.56028830  0.97938574  0.58669018    -0.13900
C1455       C  0.59279494  0.02528042  0.58480248     0.24900
C1456       C  0.58403863  0.05789083  0.59459875    -0.19300
C1457       C  0.61629571  0.10221651  0.59257835    -0.07700
C1458       C  0.65736603  0.11442106  0.58010217    -0.03800
C1459       C  0.66569909  0.08134107  0.57041851    -0.09100
C1460       C  0.63384724  0.03729517  0.57291702    -0.16800
H1461       H  0.49377117  0.80647378  0.54410235     0.11400
H1462       H  0.53243186  0.88684671  0.54353268     0.10700
H1463       H  0.48403530  0.88748844  0.63043645     0.10600
H1464       H  0.44700996  0.80703836  0.63169503     0.11100
H1465       H  0.55233529  0.04909056  0.60375642     0.11200
H1466       H  0.60880806  0.12687557  0.60012752     0.11200
H1467       H  0.69701505  0.08948922  0.56088385     0.11300
H1468       H  0.64119024  0.01252970  0.56532592     0.10100
C1469       C  0.38402971  0.61075799  0.58624725    -0.03700
C1470       C  0.36055966  0.58904687  0.56091996    -0.09400
C1471       C  0.34204714  0.54371454  0.55810091    -0.17100
C1472       C  0.34685563  0.51936344  0.58047739     0.25000
C1473       C  0.37009684  0.54080157  0.60587933    -0.18800
C1474       C  0.38849799  0.58619119  0.60877919    -0.07700
C1475       C  0.32669004  0.47233854  0.57758965    -0.14100
C1476       C  0.30691329  0.43294273  0.57482474    -0.13900
C1477       C  0.27841245  0.38618849  0.57167127     0.24900
C1478       C  0.24502255  0.36384765  0.59227736    -0.19300
C1479       C  0.21257444  0.32058949  0.58710618    -0.07700
C1480       C  0.21317073  0.29871342  0.56139733    -0.03800
C1481       C  0.24819204  0.32019353  0.54160925    -0.09100
C1482       C  0.28063876  0.36382647  0.54669975    -0.16800
H1483       H  0.35700625  0.60734841  0.54320174     0.11400
H1484       H  0.32400488  0.52764338  0.53841026     0.10700
H1485       H  0.37392953  0.52245740  0.62345584     0.10600
H1486       H  0.40648597  0.60225457  0.62848073     0.11100
H1487       H  0.24260883  0.38064576  0.61155492     0.11200
H1488       H  0.18531891  0.30504375  0.60228876     0.11200
H1489       H  0.24858948  0.30448048  0.52121375     0.11300
H1490       H  0.30604338  0.38077015  0.53041164     0.10100
C1491       C  0.06111525  0.23816059  0.53229439    -0.03700
C1492       C  0.02230428  0.20303440  0.52113316    -0.09400
C1493       C  0.98752494  0.20884416  0.51336318    -0.17100
C1494       C  0.99092718  0.24977014  0.51645903     0.25000
C1495       C  0.02930795  0.28508446  0.52744574    -0.18800
C1496       C  0.06434932  0.27936410  0.53528778    -0.07700
C1497       C  0.95344014  0.25391740  0.51039259    -0.14100
C1498       C  0.91848078  0.25151700  0.50792343    -0.13900
C1499       C  0.87476318  0.24365810  0.51062367     0.24900
C1500       C  0.86789514  0.27738417  0.52009437    -0.19300
C1501       C  0.82671985  0.26793845  0.52997668    -0.08000
C1502       C  0.79225908  0.22434167  0.53143169    -0.03800
C1503       C  0.79846711  0.19110656  0.51936690    -0.09100
C1504       C  0.83965884  0.20080169  0.50901990    -0.16800
H1505       H  0.01864616  0.17091211  0.51836381     0.11400
H1506       H  0.95769744  0.18119657  0.50523937     0.10700
H1507       H  0.03195947  0.31679833  0.53023651     0.10600
H1508       H  0.09381895  0.30708028  0.54368684     0.11100
H1509       H  0.89491547  0.31062123  0.52149191     0.11200
H1510       H  0.82296663  0.29447777  0.53866232     0.11200
H1511       H  0.77259280  0.15729287  0.51998520     0.11300
H1512       H  0.84484637  0.17443490  0.50184405     0.10100
C1513       C  0.60268150  0.47103008  0.58748711    -0.03700
C1514       C  0.63000926  0.51158833  0.60106822    -0.09400
C1515       C  0.61716988  0.54345383  0.60314053    -0.17100
C1516       C  0.57652880  0.53494423  0.59219186     0.25000
C1517       C  0.54892558  0.49426862  0.57936433    -0.18800
C1518       C  0.56183837  0.46283588  0.57691901    -0.07700
C1519       C  0.56268036  0.56745585  0.59335974    -0.14100
C1520       C  0.54750860  0.59168084  0.59275760    -0.13900
C1521       C  0.52604801  0.61766250  0.59084402     0.24900
C1522       C  0.50013696  0.61336713  0.56644524    -0.19300
C1523       C  0.47729706  0.63636338  0.56517136    -0.07700
C1524       C  0.47931942  0.66355424  0.58852664    -0.03800
C1525       C  0.50621833  0.66863155  0.61261052    -0.09100
C1526       C  0.52955971  0.64608343  0.61365655    -0.16800
H1527       H  0.66168875  0.51911631  0.60931011     0.11400
H1528       H  0.63912020  0.57482764  0.61300545     0.10700
H1529       H  0.51742999  0.48695471  0.57083274     0.10600
H1530       H  0.53970159  0.43198730  0.56649613     0.11100
H1531       H  0.49711379  0.59176059  0.54852065     0.11200
H1532       H  0.45726578  0.63225473  0.54620834     0.11200
H1533       H  0.50847122  0.68943254  0.63085843     0.11300
H1534       H  0.54989094  0.65040255  0.63244768     0.10100
C1535       C  0.24108248  0.92885852  0.56204185    -0.03700
C1536       C  0.24653380  0.92171913  0.59168122    -0.09400
C1537       C  0.25890854  0.89089878  0.59940416    -0.17100
C1538       C  0.26632519  0.86708364  0.57755124     0.25000
C1539       C  0.25920756  0.87299127  0.54809741    -0.18800
C1540       C  0.24689119  0.90369563  0.54041250    -0.07700
C1541       C  0.28458181  0.83933809  0.58465515    -0.14100
C1542       C  0.30230319  0.81771633  0.58791738    -0.13900
C1543       C  0.32578929  0.79364278  0.58863783     0.24900
C1544       C  0.32588499  0.77091064  0.61384709    -0.19300
C1545       C  0.34939549  0.74842719  0.61410064    -0.07700
C1546       C  0.37332163  0.74861642  0.58920947    -0.03800
C1547       C  0.37280785  0.77116674  0.56403087    -0.09100
C1548       C  0.34923881  0.79338063  0.56374784    -0.16800
H1549       H  0.24384171  0.94184236  0.60866820     0.11400
H1550       H  0.26460283  0.88712111  0.62226602     0.10700
H1551       H  0.26515189  0.85527837  0.53088590     0.10600
H1552       H  0.24446971  0.90971862  0.51739214     0.11100
H1553       H  0.30799911  0.77071010  0.63331774     0.11200
H1554       H  0.34941023  0.73135727  0.63378336     0.11200
H1555       H  0.39087904  0.77165819  0.54459619     0.11300
H1556       H  0.34953976  0.81065027  0.54408214     0.10100
C1557       C  0.32764704  0.07842691  0.52592394    -0.03700
C1558       C  0.36559908  0.07489053  0.52595310    -0.09400
C1559       C  0.40551737  0.10972474  0.51634484    -0.17100
C1560       C  0.40790588  0.14833273  0.50649391     0.25000
C1561       C  0.37021979  0.15178352  0.50580664    -0.18800
C1562       C  0.33038318  0.11713120  0.51536434    -0.07700
C1563       C  0.44946837  0.18627994  0.50039114    -0.14100
C1564       C  0.48301283  0.22079403  0.49994365    -0.13900
C1565       C  0.51984939  0.26289673  0.50641753     0.24900
C1566       C  0.51524756  0.29998534  0.50539501    -0.19300
C1567       C  0.54584797  0.33861178  0.51923988    -0.07700
C1568       C  0.58130571  0.34039875  0.53434859    -0.03800
C1569       C  0.58772127  0.30414255  0.53282955    -0.09100
C1570       C  0.55693221  0.26552837  0.51918986    -0.16800
H1571       H  0.36459051  0.04546147  0.53367453     0.11400
H1572       H  0.43465532  0.10693924  0.51726967     0.10700
H1573       H  0.37181265  0.18170198  0.49850076     0.10600
H1574       H  0.30185997  0.12096989  0.51478580     0.11100
H1575       H  0.48644492  0.29815853  0.49573267     0.11200
H1576       H  0.54013979  0.36600869  0.51972893     0.11200
H1577       H  0.61483221  0.30441858  0.54395613     0.11300
H1578       H  0.56063729  0.23691069  0.52030466     0.10100
loop_ 
_geom_bond_atom_site_label_1 
_geom_bond_atom_site_label_2 
_geom_bond_distance 
_geom_bond_site_symmetry_2 
_ccdc_geom_bond_type 
C1            N2   1.370       .  A
C1            N6   1.359       .  A
C1          C746   1.475       .  S
N2            C3   1.368       .  A
C3            N4   1.356   1_565  A
C3          C151   1.480       .  S
N4            C5   1.352       .  A
C5            N6   1.355   1_545  A
C5          C768   1.482       .  S
C7            N8   1.362       .  A
C7           N12   1.367       .  A
C7          C724   1.491       .  S
N8            C9   1.357       .  A
C9           N10   1.352       .  A
C9          C779   1.481       .  S
N10          C11   1.352       .  A
C11          N12   1.365       .  A
C11          C63   1.467       .  S
C13          N14   1.375       .  A
C13          N18   1.360       .  A
C13         C691   1.484       .  S
N14          C15   1.371       .  A
C15          N16   1.356       .  A
C15         C166   1.481       .  S
N16          C17   1.348       .  A
C17          N18   1.350       .  A
C17         C702   1.480       .  S
C19          N20   1.373       .  A
C19          N24   1.361       .  A
C19         C669   1.497       .  S
N20          C21   1.371       .  A
C21          N22   1.352       .  A
C21          C64   1.472       .  S
N22          C23   1.349       .  A
C23          N24   1.353       .  A
C23         C713   1.479       .  S
C25          N26   1.360       .  A
C25          N30   1.370       .  A
C25         C614   1.494   1_655  S
N26          C27   1.355       .  A
C27          N28   1.351       .  A
C27         C636   1.479       .  S
N28          C29   1.352       .  A
C29          N30   1.369       .  A
C29          C58   1.469       .  S
C31          N32   1.374       .  A
C31          N36   1.357       .  A
C31         C592   1.482       .  S
N32          C33   1.372       .  A
C33          N34   1.356       .  A
C33         C168   1.483       .  S
N34          C35   1.350       .  A
C35          N36   1.351       .  A
C35         C647   1.479       .  S
C37         C658   1.498       .  S
C37          C38   1.424       .  A
C37          C42   1.422       .  A
C38         C757   1.496       .  S
C38          C39   1.425       .  A
C39         C625   1.500       .  S
C39          C40   1.423       .  A
C40         C680   1.498       .  S
C40          C41   1.423       .  A
C41         C735   1.495       .  S
C41          C42   1.421       .  A
C42         C603   1.498       .  S
O43          C59   1.279       .  A
O43         Zn49   2.077       .  S
C44          C98   1.480       .  S
C44          O60   1.278       .  A
C44          O57   1.279       .  A
O45          C58   1.275       .  A
O45         Cd52   2.069       .  S
O46          C64   1.274       .  A
O46         Cd55   2.099       .  S
O47          C61   1.278       .  A
O47         Cd51   2.106       .  S
O48          C59   1.279       .  A
O48         Cd51   2.064       .  S
Zn49         O60   2.005       .  S
Zn49         O62   2.039       .  S
Zn49         O54   1.957       .  S
O50          C61   1.279       .  A
O50         Cd55   2.065       .  S
Cd51         O53   2.085       .  S
Cd51         O54   2.007       .  S
Cd52         O56   2.064       .  S
Cd52         O65   2.067       .  S
Cd52         O54   1.988       .  S
O53          C63   1.273       .  A
O54         Cd55   2.016       .  S
Cd55         O57   2.112       .  S
O56          C63   1.274       .  A
C58          O62   1.273       .  A
C59          C88   1.484       .  S
C61          C76   1.479       .  S
C64          O65   1.275       .  A
C66          N67   1.362       .  A
C66          N71   1.369       .  A
C66         C548   1.494       .  S
N67          C68   1.357       .  A
C68          N69   1.351       .  A
C68         C570   1.481       .  S
N69          C70   1.351       .  A
C70          N71   1.366       .  A
C70         C188   1.468       .  S
C72          N73   1.360       .  A
C72          N77   1.371       .  A
C72         C537   1.475       .  S
N73          C74   1.354       .  A
C74          N75   1.350       .  A
C74         C581   1.482       .  S
N75          C76   1.354       .  A
C76          N77   1.368       .  A
C78          N79   1.370       .  A
C78          N83   1.362       .  A
C78         C482   1.493       .  S
N79          C80   1.367       .  A
C80          N81   1.352       .  A
C80         C194   1.469       .  S
N81          C82   1.351       .  A
C82          N83   1.356       .  A
C82         C515   1.480       .  S
C84          N85   1.359       .  A
C84          N89   1.374       .  A
C84         C460   1.484       .  S
N85          C86   1.351       .  A
C86          N87   1.350       .  A
C86         C504   1.481       .  S
N87          C88   1.357       .  A
C88          N89   1.372       .  A
C90          N91   1.359       .  A
C90          N95   1.371       .  A
C90         C427   1.495       .  S
N91          C92   1.354       .  A
C92          N93   1.353       .  A
C92         C438   1.481       .  S
N93          C94   1.355       .  A
C94          N95   1.370       .  A
C94         C193   1.475       .  S
C96          N97   1.372       .  A
C96         N101   1.359       .  A
C96         C394   1.482       .  S
N97          C98   1.370       .  A
C98          N99   1.356       .  A
N99         C100   1.350       .  A
C100        N101   1.352       .  A
C100        C449   1.481       .  S
C102        C471   1.497       .  S
C102        C103   1.422   1_565  A
C102        C107   1.422   1_565  A
C103        C559   1.497   1_445  S
C103        C104   1.425       .  A
C104        C405   1.500       .  S
C104        C105   1.425       .  A
C105        C493   1.500       .  S
C105        C106   1.426       .  A
C106        C526   1.498       .  S
C106        C107   1.423       .  A
C107        C416   1.499   1_545  S
C108        N109   1.357       .  A
C108        N113   1.376       .  A
C108        C350   1.492       .  S
N109        C110   1.350       .  A
C110        N111   1.351       .  A
C110        C383   1.479       .  S
N111        C112   1.359       .  A
C112        N113   1.375       .  A
C112        C174   1.489       .  S
C114        N115   1.358       .  A
C114        N119   1.370       .  A
C114        C339   1.493       .  S
N115        C116   1.354       .  A
C116        N117   1.352       .  A
C116        C372   1.479       .  S
N117        C118   1.355       .  A
C118        N119   1.369       .  A
C118        C170   1.473   1_655  S
C120        N121   1.376       .  A
C120        N125   1.361       .  A
C120        C284   1.487       .  S
N121        C122   1.372       .  A
C122        N123   1.354       .  A
C122        C189   1.480       .  S
N123        C124   1.346       .  A
C124        N125   1.351       .  A
C124        C317   1.478       .  S
C126        N127   1.357       .  A
C126        N131   1.367       .  A
C126        C262   1.480   1_455  S
N127        C128   1.354       .  A
C128        N129   1.353       .  A
C128        C306   1.477       .  S
N129        C130   1.354       .  A
C130        N131   1.367       .  A
C130        C171   1.468       .  S
C132        N133   1.367       .  A
C132        N137   1.360       .  A
C132        C229   1.488       .  S
N133        C134   1.365       .  A
C134        N135   1.352       .  A
C134        C165   1.467       .  S
N135        C136   1.352       .  A
C136        N137   1.356       .  A
C136        C240   1.479       .  S
C138        N139   1.375       .  A
C138        N143   1.359       .  A
C138        C207   1.486       .  S
N139        C140   1.374       .  A
C140        N141   1.354       .  A
C140        C191   1.483       .  S
N141        C142   1.348       .  A
C142        N143   1.351       .  A
C142        C251   1.478       .  S
C144        C295   1.498       .  S
C144        C145   1.424       .  A
C144        C149   1.423       .  A
C145        C218   1.495       .  S
C145        C146   1.424       .  A
C146        C361   1.504       .  S
C146        C147   1.424       .  A
C147        C273   1.493       .  S
C147        C148   1.425       .  A
C148        C196   1.501       .  S
C148        C149   1.422       .  A
C149        C328   1.497       .  S
O150        C166   1.280       .  A
O150       Zn945   2.083       .  S
C151        O167   1.279   1_565  A
C151        O164   1.278       .  A
O152        C165   1.273       .  A
O152       Cd159   2.063       .  S
O153        C171   1.273       .  A
O153       Cd162   2.086       .  S
O154        C168   1.278       .  A
O154       Cd947   2.113   1_665  S
O155        C166   1.277       .  A
O155       Cd947   2.050       .  S
Zn156       O169   2.036       .  S
Zn156       O939   2.071       .  S
Zn156       O956   2.016       .  S
Zn156       O161   1.960       .  S
O157        C168   1.279   1_455  A
O157       Cd951   2.067       .  S
Cd158       O160   2.094       .  S
Cd158       O943   2.106   1_455  S
Cd158       O944   2.055       .  S
Cd158       O161   2.008       .  S
Cd159       O163   2.069       .  S
Cd159       O172   2.066   1_545  S
Cd159       O161   1.991       .  S
O160        C170   1.273       .  A
O161       Cd162   2.014   1_545  S
Cd162       O946   2.067       .  S
Cd162       O953   2.118       .  S
O163        C170   1.275       .  A
O164       Cd951   2.100       .  S
C165        O169   1.273       .  A
O167       Zn945   2.022       .  S
C171        O172   1.274       .  A
O173        C189   1.280       .  A
O173       Zn179   2.081       .  S
C174        O190   1.279       .  A
C174        O187   1.280       .  A
O175        C188   1.274       .  A
O175       Cd182   2.066       .  S
O176        C194   1.275       .  A
O176       Cd185   2.095       .  S
O177        C191   1.278       .  A
O177       Cd181   2.110       .  S
O178        C189   1.277       .  A
O178       Cd181   2.048       .  S
Zn179       O190   2.023       .  S
Zn179       O192   2.038       .  S
Zn179       O184   1.963       .  S
O180        C191   1.280       .  A
O180       Cd185   2.073       .  S
Cd181       O183   2.096       .  S
Cd181       O184   2.010       .  S
Cd182       O186   2.077       .  S
Cd182       O195   2.064       .  S
Cd182       O184   1.992       .  S
O183        C193   1.274       .  A
O184       Cd185   2.015       .  S
Cd185       O187   2.127       .  S
O186        C193   1.275       .  A
C188        O192   1.273       .  A
C194        O195   1.274       .  A
C196        C197   1.407       .  A
C196        C201   1.406       .  A
C197        C198   1.406       .  A
C197        H210   1.083       .  S
C198        C199   1.405       .  A
C198        H211   1.083       .  S
C199        C200   1.402       .  A
C199        C202   1.455       .  S
C200        C201   1.402       .  A
C200        H212   1.083       .  S
C201        H213   1.083       .  S
C202        C203   1.215   1_655  T
C203        C204   1.455       .  S
C204        C205   1.399       .  A
C204        C209   1.408       .  A
C205        C206   1.398       .  A
C205        H214   1.084       .  S
C206        C207   1.408       .  A
C206        H215   1.084       .  S
C207        C208   1.406       .  A
C208        C209   1.411       .  A
C208        H216   1.083       .  S
C209        H217   1.083       .  S
C218        C219   1.405       .  A
C218        C223   1.406       .  A
C219        C220   1.401       .  A
C219        H232   1.083       .  S
C220        C221   1.402       .  A
C220        H233   1.083       .  S
C221        C222   1.401       .  A
C221        C224   1.448       .  S
C222        C223   1.402       .  A
C222        H234   1.082       .  S
C223        H235   1.083       .  S
C224        C225   1.211       .  T
C225        C226   1.447       .  S
C226        C227   1.398       .  A
C226        C231   1.404       .  A
C227        C228   1.396       .  A
C227        H236   1.084       .  S
C228        C229   1.409       .  A
C228        H237   1.083       .  S
C229        C230   1.408       .  A
C230        C231   1.406       .  A
C230        H238   1.083       .  S
C231        H239   1.082       .  S
C240        C241   1.407       .  A
C240        C245   1.408       .  A
C241        C242   1.397       .  A
C241        H254   1.083       .  S
C242        C243   1.399       .  A
C242        H255   1.084       .  S
C243        C244   1.396       .  A
C243        C246   1.431       .  S
C244        C245   1.393       .  A
C244        H256   1.084       .  S
C245        H257   1.083       .  S
C246        C247   1.201       .  T
C247        C248   1.433       .  S
C248        C249   1.399       .  A
C248        C253   1.397       .  A
C249        C250   1.398       .  A
C249        H258   1.083       .  S
C250        C251   1.407       .  A
C250        H259   1.083       .  S
C251        C252   1.408       .  A
C252        C253   1.394       .  A
C252        H260   1.083       .  S
C253        H261   1.084       .  S
C262        C263   1.405       .  A
C262        C267   1.407   1_655  A
C263        C264   1.406       .  A
C263        H276   1.083       .  S
C264        C265   1.405       .  A
C264        H277   1.083       .  S
C265        C266   1.398       .  A
C265        C268   1.446       .  S
C266        C267   1.396   1_655  A
C266        H278   1.084       .  S
C267        H279   1.084       .  S
C268        C269   1.210       .  T
C269        C270   1.446       .  S
C270        C271   1.402       .  A
C270        C275   1.401       .  A
C271        C272   1.400       .  A
C271        H280   1.083       .  S
C272        C273   1.405       .  A
C272        H281   1.083       .  S
C273        C274   1.405       .  A
C274        C275   1.400       .  A
C274        H282   1.083       .  S
C275        H283   1.082       .  S
C284        C285   1.408       .  A
C284        C289   1.407       .  A
C285        C286   1.395   1_565  A
C285        H298   1.084       .  S
C286        C287   1.397       .  A
C286        H299   1.084       .  S
C287        C288   1.408       .  A
C287        C290   1.452       .  S
C288        C289   1.411   1_545  A
C288        H300   1.083       .  S
C289        H301   1.083       .  S
C290        C291   1.213       .  T
C291        C292   1.452       .  S
C292        C293   1.402       .  A
C292        C297   1.404       .  A
C293        C294   1.401       .  A
C293        H302   1.083       .  S
C294        C295   1.406       .  A
C294        H303   1.083       .  S
C295        C296   1.407       .  A
C296        C297   1.404       .  A
C296        H304   1.083       .  S
C297        H305   1.083       .  S
C306        C307   1.407       .  A
C306        C311   1.407       .  A
C307        C308   1.393       .  A
C307        H320   1.083       .  S
C308        C309   1.397       .  A
C308        H321   1.084       .  S
C309        C310   1.398       .  A
C309        C312   1.431       .  S
C310        C311   1.397       .  A
C310        H322   1.084       .  S
C311        H323   1.083       .  S
C312        C313   1.201       .  T
C313        C314   1.433       .  S
C314        C315   1.396       .  A
C314        C319   1.400       .  A
C315        C316   1.394       .  A
C315        H324   1.084       .  S
C316        C317   1.409       .  A
C316        H325   1.083       .  S
C317        C318   1.406       .  A
C318        C319   1.398       .  A
C318        H326   1.083       .  S
C319        H327   1.084       .  S
C328        C329   1.406       .  A
C328        C333   1.406       .  A
C329        C330   1.402       .  A
C329        H342   1.083       .  S
C330        C331   1.401       .  A
C330        H343   1.080       .  S
C331        C332   1.402       .  A
C331        C334   1.451       .  S
C332        C333   1.402       .  A
C332        H344   1.083       .  S
C333        H345   1.083       .  S
C334        C335   1.212       .  T
C335        C336   1.450       .  S
C336        C337   1.404       .  A
C336        C341   1.397       .  A
C337        C338   1.407       .  A
C337        H346   1.078       .  S
C338        C339   1.407       .  A
C338        H347   1.083       .  S
C339        C340   1.412       .  A
C340        C341   1.397       .  A
C340        H348   1.082       .  S
C341        H349   1.084       .  S
C350        C351   1.410       .  A
C350        C355   1.407       .  A
C351        C352   1.399       .  A
C351        H364   1.084       .  S
C352        C353   1.399       .  A
C352        H365   1.084       .  S
C353        C354   1.409       .  A
C353        C356   1.459       .  S
C354        C355   1.413       .  A
C354        H366   1.083       .  S
C355        H367   1.083       .  S
C356        C357   1.218       .  T
C357        C358   1.459       .  S
C358        C359   1.405       .  A
C358        C363   1.403       .  A
C359        C360   1.407       .  A
C359        H368   1.083       .  S
C360        C361   1.408       .  A
C360        H369   1.083       .  S
C361        C362   1.407       .  A
C362        C363   1.404       .  A
C362        H370   1.083       .  S
C363        H371   1.083       .  S
C372        C373   1.408   1_545  A
C372        C377   1.408       .  A
C373        C374   1.394       .  A
C373        H386   1.083       .  S
C374        C375   1.398       .  A
C374        H387   1.084       .  S
C375        C376   1.398       .  A
C375        C378   1.434       .  S
C376        C377   1.397   1_565  A
C376        H388   1.083       .  S
C377        H389   1.083       .  S
C378        C379   1.203       .  T
C379        C380   1.436       .  S
C380        C381   1.400       .  A
C380        C385   1.398       .  A
C381        C382   1.398       .  A
C381        H390   1.084       .  S
C382        C383   1.407       .  A
C382        H391   1.083       .  S
C383        C384   1.408       .  A
C384        C385   1.396       .  A
C384        H392   1.083       .  S
C385        H393   1.084       .  S
C394        C395   1.407       .  A
C394        C399   1.406       .  A
C395        C396   1.397       .  A
C395        H408   1.084       .  S
C396        C397   1.399       .  A
C396        H409   1.084       .  S
C397        C398   1.407       .  A
C397        C400   1.452       .  S
C398        C399   1.409       .  A
C398        H410   1.083       .  S
C399        H411   1.083       .  S
C400        C401   1.214       .  T
C401        C402   1.452       .  S
C402        C403   1.402   1_655  A
C402        C407   1.404       .  A
C403        C404   1.402       .  A
C403        H412   1.083       .  S
C404        C405   1.406       .  A
C404        H413   1.083       .  S
C405        C406   1.408       .  A
C406        C407   1.404   1_455  A
C406        H414   1.083       .  S
C407        H415   1.083       .  S
C416        C417   1.406       .  A
C416        C421   1.406       .  A
C417        C418   1.404       .  A
C417        H430   1.083   1_565  S
C418        C419   1.403       .  A
C418        H431   1.081       .  S
C419        C420   1.402       .  A
C419        C422   1.453       .  S
C420        C421   1.401       .  A
C420        H432   1.083       .  S
C421        H433   1.083       .  S
C422        C423   1.214       .  T
C423        C424   1.452       .  S
C424        C425   1.406       .  A
C424        C429   1.397       .  A
C425        C426   1.410       .  A
C425        H434   1.083       .  S
C426        C427   1.408       .  A
C426        H435   1.083       .  S
C427        C428   1.411       .  A
C428        C429   1.397       .  A
C428        H436   1.083       .  S
C429        H437   1.084       .  S
C438        C439   1.408       .  A
C438        C443   1.408       .  A
C439        C440   1.396       .  A
C439        H452   1.083       .  S
C440        C441   1.399       .  A
C440        H453   1.084       .  S
C441        C442   1.398       .  A
C441        C444   1.434       .  S
C442        C443   1.396       .  A
C442        H454   1.084       .  S
C443        H455   1.083       .  S
C444        C445   1.203       .  T
C445        C446   1.436       .  S
C446        C447   1.399       .  A
C446        C451   1.397       .  A
C447        C448   1.399       .  A
C447        H456   1.084       .  S
C448        C449   1.407   1_455  A
C448        H457   1.083       .  S
C449        C450   1.409       .  A
C450        C451   1.395   1_655  A
C450        H458   1.083       .  S
C451        H459   1.084       .  S
C460        C461   1.407       .  A
C460        C465   1.406       .  A
C461        C462   1.397       .  A
C461        H474   1.084       .  S
C462        C463   1.398       .  A
C462        H475   1.084       .  S
C463        C464   1.407       .  A
C463        C466   1.453       .  S
C464        C465   1.411       .  A
C464        H476   1.083       .  S
C465        H477   1.083       .  S
C466        C467   1.214       .  T
C467        C468   1.453   1_655  S
C468        C469   1.404       .  A
C468        C473   1.402       .  A
C469        C470   1.406       .  A
C469        H478   1.083       .  S
C470        C471   1.407       .  A
C470        H479   1.083       .  S
C471        C472   1.405       .  A
C472        C473   1.400       .  A
C472        H480   1.083       .  S
C473        H481   1.083   1_455  S
C482        C483   1.410       .  A
C482        C487   1.408       .  A
C483        C484   1.398       .  A
C483        H496   1.083       .  S
C484        C485   1.398       .  A
C484        H497   1.084       .  S
C485        C486   1.405       .  A
C485        C488   1.452       .  S
C486        C487   1.408       .  A
C486        H498   1.082       .  S
C487        H499   1.083       .  S
C488        C489   1.213       .  T
C489        C490   1.452       .  S
C490        C491   1.402       .  A
C490        C495   1.402       .  A
C491        C492   1.404       .  A
C491        H500   1.081       .  S
C492        C493   1.407       .  A
C492        H501   1.083       .  S
C493        C494   1.407       .  A
C494        C495   1.401       .  A
C494        H502   1.083       .  S
C495        H503   1.083       .  S
C504        C505   1.408       .  A
C504        C509   1.408       .  A
C505        C506   1.399       .  A
C505        H518   1.083       .  S
C506        C507   1.399       .  A
C506        H519   1.083       .  S
C507        C508   1.397       .  A
C507        C510   1.435       .  S
C508        C509   1.395       .  A
C508        H520   1.084       .  S
C509        H521   1.083       .  S
C510        C511   1.203       .  T
C511        C512   1.434       .  S
C512        C513   1.400       .  A
C512        C517   1.397       .  A
C513        C514   1.398       .  A
C513        H522   1.083       .  S
C514        C515   1.407       .  A
C514        H523   1.083       .  S
C515        C516   1.409       .  A
C516        C517   1.393       .  A
C516        H524   1.083       .  S
C517        H525   1.084       .  S
C526        C527   1.405       .  A
C526        C531   1.408       .  A
C527        C528   1.399       .  A
C527        H540   1.083       .  S
C528        C529   1.401       .  A
C528        H541   1.083       .  S
C529        C530   1.404       .  A
C529        C532   1.450       .  S
C530        C531   1.405       .  A
C530        H542   1.083       .  S
C531        H543   1.083       .  S
C532        C533   1.212       .  T
C533        C534   1.450       .  S
C534        C535   1.403       .  A
C534        C539   1.403       .  A
C535        C536   1.403       .  A
C535        H544   1.083       .  S
C536        C537   1.404       .  A
C536        H545   1.083       .  S
C537        C538   1.405       .  A
C538        C539   1.403       .  A
C538        H546   1.083       .  S
C539        H547   1.083       .  S
C548        C549   1.410       .  A
C548        C553   1.410       .  A
C549        C550   1.408       .  A
C549        H562   1.083       .  S
C550        C551   1.404       .  A
C550        H563   1.083       .  S
C551        C552   1.397       .  A
C551        C554   1.449       .  S
C552        C553   1.397       .  A
C552        H564   1.084       .  S
C553        H565   1.083       .  S
C554        C555   1.212       .  T
C555        C556   1.449       .  S
C556        C557   1.402       .  A
C556        C561   1.401       .  A
C557        C558   1.401       .  A
C557        H566   1.083       .  S
C558        C559   1.406       .  A
C558        H567   1.083   1_565  S
C559        C560   1.407       .  A
C560        C561   1.402       .  A
C560        H568   1.083       .  S
C561        H569   1.082       .  S
C570        C571   1.409       .  A
C570        C575   1.407       .  A
C571        C572   1.394       .  A
C571        H584   1.083       .  S
C572        C573   1.396       .  A
C572        H585   1.084       .  S
C573        C574   1.400       .  A
C573        C576   1.434       .  S
C574        C575   1.398       .  A
C574        H586   1.084       .  S
C575        H587   1.083       .  S
C576        C577   1.203   1_565  T
C577        C578   1.436       .  S
C578        C579   1.396       .  A
C578        C583   1.400       .  A
C579        C580   1.393       .  A
C579        H588   1.084       .  S
C580        C581   1.409       .  A
C580        H589   1.083       .  S
C581        C582   1.408       .  A
C582        C583   1.401       .  A
C582        H590   1.083       .  S
C583        H591   1.083       .  S
C592        C593   1.406       .  A
C592        C597   1.407       .  A
C593        C594   1.409       .  A
C593        H606   1.083       .  S
C594        C595   1.406       .  A
C594        H607   1.083       .  S
C595        C596   1.400       .  A
C595        C598   1.454       .  S
C596        C597   1.400       .  A
C596        H608   1.084       .  S
C597        H609   1.084       .  S
C598        C599   1.214       .  T
C599        C600   1.453       .  S
C600        C601   1.405       .  A
C600        C605   1.402       .  A
C601        C602   1.405       .  A
C601        H610   1.083       .  S
C602        C603   1.407       .  A
C602        H611   1.083       .  S
C603        C604   1.406       .  A
C604        C605   1.401       .  A
C604        H612   1.083       .  S
C605        H613   1.083       .  S
C614        C615   1.411       .  A
C614        C619   1.409       .  A
C615        C616   1.396       .  A
C615        H628   1.083       .  S
C616        C617   1.397       .  A
C616        H629   1.084       .  S
C617        C618   1.406       .  A
C617        C620   1.452       .  S
C618        C619   1.410       .  A
C618        H630   1.083       .  S
C619        H631   1.083   1_455  S
C620        C621   1.213       .  T
C621        C622   1.452       .  S
C622        C623   1.403       .  A
C622        C627   1.402       .  A
C623        C624   1.403       .  A
C623        H632   1.083       .  S
C624        C625   1.406       .  A
C624        H633   1.083       .  S
C625        C626   1.407       .  A
C626        C627   1.403       .  A
C626        H634   1.083       .  S
C627        H635   1.082       .  S
C636        C637   1.407       .  A
C636        C641   1.409       .  A
C637        C638   1.396       .  A
C637        H650   1.083       .  S
C638        C639   1.399       .  A
C638        H651   1.084       .  S
C639        C640   1.396       .  A
C639        C642   1.432       .  S
C640        C641   1.394       .  A
C640        H652   1.084       .  S
C641        H653   1.083       .  S
C642        C643   1.202       .  T
C643        C644   1.433       .  S
C644        C645   1.398       .  A
C644        C649   1.398       .  A
C645        C646   1.398       .  A
C645        H654   1.084       .  S
C646        C647   1.408       .  A
C646        H655   1.083       .  S
C647        C648   1.408       .  A
C648        C649   1.394       .  A
C648        H656   1.083       .  S
C649        H657   1.084       .  S
C658        C659   1.406       .  A
C658        C663   1.407       .  A
C659        C660   1.403       .  A
C659        H672   1.083       .  S
C660        C661   1.403       .  A
C660        H673   1.083       .  S
C661        C662   1.402       .  A
C661        C664   1.453       .  S
C662        C663   1.404       .  A
C662        H674   1.082       .  S
C663        H675   1.083       .  S
C664        C665   1.214       .  T
C665        C666   1.453   1_565  S
C666        C667   1.406       .  A
C666        C671   1.396       .  A
C667        C668   1.411       .  A
C667        H676   1.082       .  S
C668        C669   1.409       .  A
C668        H677   1.083       .  S
C669        C670   1.412       .  A
C670        C671   1.396       .  A
C670        H678   1.083       .  S
C671        H679   1.084   1_545  S
C680        C681   1.405       .  A
C680        C685   1.407       .  A
C681        C682   1.402       .  A
C681        H694   1.083       .  S
C682        C683   1.402       .  A
C682        H695   1.083       .  S
C683        C684   1.403       .  A
C683        C686   1.451       .  S
C684        C685   1.403       .  A
C684        H696   1.083       .  S
C685        H697   1.083       .  S
C686        C687   1.213       .  T
C687        C688   1.450       .  S
C688        C689   1.397       .  A
C688        C693   1.407       .  A
C689        C690   1.395       .  A
C689        H698   1.084       .  S
C690        C691   1.408       .  A
C690        H699   1.084       .  S
C691        C692   1.406       .  A
C692        C693   1.410       .  A
C692        H700   1.083       .  S
C693        H701   1.083       .  S
C702        C703   1.408       .  A
C702        C707   1.408       .  A
C703        C704   1.394   1_455  A
C703        H716   1.083       .  S
C704        C705   1.397       .  A
C704        H717   1.084       .  S
C705        C706   1.399   1_655  A
C705        C708   1.434       .  S
C706        C707   1.399       .  A
C706        H718   1.083       .  S
C707        H719   1.083       .  S
C708        C709   1.202       .  T
C709        C710   1.432       .  S
C710        C711   1.396       .  A
C710        C715   1.399       .  A
C711        C712   1.394       .  A
C711        H720   1.084       .  S
C712        C713   1.409       .  A
C712        H721   1.083       .  S
C713        C714   1.407       .  A
C714        C715   1.397       .  A
C714        H722   1.083       .  S
C715        H723   1.084       .  S
C724        C725   1.409       .  A
C724        C729   1.409       .  A
C725        C726   1.406       .  A
C725        H738   1.083       .  S
C726        C727   1.404       .  A
C726        H739   1.083       .  S
C727        C728   1.398       .  A
C727        C730   1.447       .  S
C728        C729   1.396       .  A
C728        H740   1.084       .  S
C729        H741   1.083       .  S
C730        C731   1.211       .  T
C731        C732   1.447       .  S
C732        C733   1.402       .  A
C732        C737   1.401       .  A
C733        C734   1.400       .  A
C733        H742   1.083       .  S
C734        C735   1.405       .  A
C734        H743   1.083       .  S
C735        C736   1.406       .  A
C736        C737   1.401       .  A
C736        H744   1.083       .  S
C737        H745   1.081       .  S
C746        C747   1.404       .  A
C746        C751   1.405       .  A
C747        C748   1.403       .  A
C747        H760   1.083       .  S
C748        C749   1.402       .  A
C748        H761   1.083       .  S
C749        C750   1.403       .  A
C749        C752   1.451       .  S
C750        C751   1.404       .  A
C750        H762   1.083       .  S
C751        H763   1.083       .  S
C752        C753   1.213       .  T
C753        C754   1.451       .  S
C754        C755   1.404       .  A
C754        C759   1.402       .  A
C755        C756   1.404       .  A
C755        H764   1.083       .  S
C756        C757   1.407       .  A
C756        H765   1.083       .  S
C757        C758   1.405       .  A
C758        C759   1.400       .  A
C758        H766   1.083       .  S
C759        H767   1.083       .  S
C768        C769   1.408       .  A
C768        C773   1.408       .  A
C769        C770   1.400       .  A
C769        H782   1.083       .  S
C770        C771   1.400       .  A
C770        H783   1.083       .  S
C771        C772   1.397       .  A
C771        C774   1.436       .  S
C772        C773   1.394       .  A
C772        H784   1.084       .  S
C773        H785   1.083       .  S
C774        C775   1.204       .  T
C775        C776   1.435       .  S
C776        C777   1.400       .  A
C776        C781   1.397       .  A
C777        C778   1.399       .  A
C777        H786   1.084   1_554  S
C778        C779   1.407       .  A
C778        H787   1.083       .  S
C779        C780   1.409       .  A
C780        C781   1.394       .  A
C780        H788   1.083       .  S
C781        H789   1.084       .  S
C790        N791   1.373       .  A
C790        N795   1.359   1_565  A
C790       C1535   1.480       .  S
N791        C792   1.371   1_565  A
C792        N793   1.356       .  A
C792        C940   1.485       .  S
N793        C794   1.351       .  A
C794        N795   1.354       .  A
C794       C1557   1.483       .  S
C796        N797   1.361       .  A
C796        N801   1.371       .  A
C796       C1513   1.496       .  S
N797        C798   1.356       .  A
C798        N799   1.353       .  A
C798       C1568   1.482       .  S
N799        C800   1.354       .  A
C800        N801   1.370       .  A
C800        C852   1.476       .  S
C802        N803   1.372       .  A
C802        N807   1.359       .  A
C802       C1480   1.476       .  S
N803        C804   1.370       .  A
C804        N805   1.354       .  A
C804        C955   1.479       .  S
N805        C806   1.349       .  A
C806        N807   1.352       .  A
C806       C1491   1.479       .  S
C808        N809   1.367       .  A
C808        N813   1.362       .  A
C808       C1458   1.487       .  S
N809        C810   1.365       .  A
C810        N811   1.350       .  A
C810        C853   1.465       .  S
N811        C812   1.351       .  A
C812        N813   1.357       .  A
C812       C1502   1.478       .  S
C814        N815   1.361       .  A
C814        N819   1.369       .  A
C814       C1403   1.492   1_655  S
N815        C816   1.356       .  A
C816        N817   1.353       .  A
C816       C1425   1.481       .  S
N817        C818   1.353       .  A
C818        N819   1.368       .  A
C818        C847   1.472       .  S
C820        N821   1.372       .  A
C820        N825   1.359       .  A
C820       C1381   1.478       .  S
N821        C822   1.370       .  A
C822        N823   1.355       .  A
C822        C957   1.479       .  S
N823        C824   1.350       .  A
C824        N825   1.353       .  A
C824       C1436   1.480       .  S
C826       C1447   1.495       .  S
C826        C827   1.421       .  A
C826        C831   1.423       .  A
C827       C1546   1.500       .  S
C827        C828   1.424       .  A
C828       C1414   1.500       .  S
C828        C829   1.427       .  A
C829       C1469   1.496       .  S
C829        C830   1.426       .  A
C830       C1524   1.504       .  S
C830        C831   1.422       .  A
C831       C1392   1.496       .  S
O832        C848   1.279       .  A
O832       Zn838   2.067       .  S
C833        C887   1.486       .  S
C833        O849   1.279       .  A
C833        O846   1.278       .  A
O834        C847   1.276       .  A
O834       Cd841   2.079       .  S
O835        C853   1.273       .  A
O835       Cd844   2.077       .  S
O836        C850   1.279       .  A
O836       Cd840   2.111       .  S
O837        C848   1.279       .  A
O837       Cd840   2.061       .  S
Zn838       O849   2.019       .  S
Zn838       O851   2.036       .  S
Zn838       O843   1.954       .  S
O839        C850   1.278       .  A
O839       Cd844   2.061       .  S
Cd840       O842   2.094       .  S
Cd840       O843   2.007       .  S
Cd841       O845   2.082       .  S
Cd841       O854   2.072       .  S
Cd841       O843   1.995       .  S
O842        C852   1.273       .  A
O843       Cd844   2.016       .  S
Cd844       O846   2.118       .  S
O845        C852   1.276       .  A
C847        O851   1.273       .  A
C848        C877   1.480       .  S
C850        C865   1.480       .  S
C853        O854   1.276       .  A
C855        N856   1.359       .  A
C855        N860   1.368       .  A
C855       C1337   1.488       .  S
N856        C857   1.354       .  A
C857        N858   1.352       .  A
C857       C1359   1.479       .  S
N858        C859   1.354       .  A
C859        N860   1.368       .  A
C859        C977   1.469       .  S
C861        N862   1.359       .  A
C861        N866   1.372       .  A
C861       C1326   1.486       .  S
N862        C863   1.351       .  A
C863        N864   1.350       .  A
C863       C1370   1.481       .  S
N864        C865   1.357       .  A
C865        N866   1.371       .  A
C867        N868   1.367       .  A
C867        N872   1.361       .  A
C867       C1271   1.491       .  S
N868        C869   1.365       .  A
C869        N870   1.352       .  A
C869        C983   1.467       .  S
N870        C871   1.352       .  A
C871        N872   1.356       .  A
C871       C1304   1.480       .  S
C873        N874   1.359       .  A
C873        N878   1.373       .  A
C873       C1249   1.480       .  S
N874        C875   1.352       .  A
C875        N876   1.349       .  A
C875       C1293   1.480       .  S
N876        C877   1.354       .  A
C877        N878   1.371       .  A
C879        N880   1.361       .  A
C879        N884   1.371       .  A
C879       C1216   1.495       .  S
N880        C881   1.355       .  A
C881        N882   1.351       .  A
C881       C1227   1.479       .  S
N882        C883   1.351       .  A
C883        N884   1.369       .  A
C883        C982   1.471       .  S
C885        N886   1.377       .  A
C885        N890   1.360       .  A
C885       C1183   1.492       .  S
N886        C887   1.375       .  A
C887        N888   1.355       .  A
N888        C889   1.348       .  A
C889        N890   1.351       .  A
C889       C1238   1.480       .  S
C891       C1260   1.497       .  S
C891        C892   1.425   1_565  A
C891        C896   1.422   1_565  A
C892       C1348   1.495   1_445  S
C892        C893   1.424       .  A
C893       C1194   1.504       .  S
C893        C894   1.423       .  A
C894       C1282   1.496       .  S
C894        C895   1.425       .  A
C895       C1315   1.496       .  S
C895        C896   1.422       .  A
C896       C1205   1.501   1_545  S
C897        N898   1.359       .  A
C897        N902   1.374       .  A
C897       C1139   1.484       .  S
N898        C899   1.351       .  A
C899        N900   1.349       .  A
C899       C1172   1.479       .  S
N900        C901   1.355       .  A
C901        N902   1.372       .  A
C901        C963   1.482       .  S
C903        N904   1.358       .  A
C903        N908   1.367       .  A
C903       C1128   1.485       .  S
N904        C905   1.355       .  A
C905        N906   1.353       .  A
C905       C1161   1.479       .  S
N906        C907   1.354       .  A
C907        N908   1.367       .  A
C907        C959   1.470   1_655  S
C909        N910   1.374       .  A
C909        N914   1.360       .  A
C909       C1073   1.482       .  S
N910        C911   1.371       .  A
C911        N912   1.356       .  A
C911        C978   1.480       .  S
N912        C913   1.348       .  A
C913        N914   1.351       .  A
C913       C1106   1.481       .  S
C915        N916   1.360       .  A
C915        N920   1.368       .  A
C915       C1051   1.489   1_455  S
N916        C917   1.356       .  A
C917        N918   1.353       .  A
C917       C1095   1.481       .  S
N918        C919   1.354       .  A
C919        N920   1.366       .  A
C919        C960   1.469       .  S
C921        N922   1.371       .  A
C921        N926   1.360       .  A
C921       C1018   1.494       .  S
N922        C923   1.370       .  A
C923        N924   1.352       .  A
C923        C954   1.472       .  S
N924        C925   1.351       .  A
C925        N926   1.354       .  A
C925       C1029   1.478       .  S
C927        N928   1.372       .  A
C927        N932   1.358       .  A
C927        C996   1.479       .  S
N928        C929   1.371       .  A
C929        N930   1.356       .  A
C929        C980   1.480       .  S
N930        C931   1.350       .  A
C931        N932   1.351       .  A
C931       C1040   1.478       .  S
C933       C1084   1.497       .  S
C933        C934   1.422       .  A
C933        C938   1.421       .  A
C934       C1007   1.498       .  S
C934        C935   1.425       .  A
C935       C1150   1.498       .  S
C935        C936   1.424       .  A
C936       C1062   1.495       .  S
C936        C937   1.422       .  A
C937        C985   1.497       .  S
C937        C938   1.419       .  A
C938       C1117   1.492       .  S
O939        C955   1.279       .  A
C940        O956   1.278       .  A
C940        O953   1.279   1_545  A
O941        C954   1.275       .  A
O941       Cd948   2.069       .  S
O942        C960   1.273       .  A
O942       Cd951   2.083   1_556  S
O943        C957   1.278   1_545  A
O944        C955   1.278       .  A
Zn945       O958   2.045   1_554  S
Zn945       O950   1.970   1_554  S
O946        C957   1.279   1_455  A
Cd947       O949   2.081   1_554  S
Cd947       O950   2.008   1_554  S
Cd948       O952   2.076       .  S
Cd948       O961   2.071   1_545  S
Cd948       O950   1.992       .  S
O949        C959   1.273       .  A
O950       Cd951   2.007   1_546  S
O952        C959   1.276       .  A
C954        O958   1.273       .  A
C960        O961   1.275       .  A
O962        C978   1.280       .  A
O962       Zn968   2.078       .  S
C963        O979   1.280       .  A
C963        O976   1.277       .  A
O964        C977   1.274       .  A
O964       Cd971   2.067       .  S
O965        C983   1.273       .  A
O965       Cd974   2.079       .  S
O966        C980   1.279       .  A
O966       Cd970   2.112       .  S
O967        C978   1.277       .  A
O967       Cd970   2.049       .  S
Zn968       O979   2.018       .  S
Zn968       O981   2.037       .  S
Zn968       O973   1.960       .  S
O969        C980   1.278       .  A
O969       Cd974   2.062       .  S
Cd970       O972   2.092       .  S
Cd970       O973   2.008       .  S
Cd971       O975   2.072       .  S
Cd971       O984   2.073       .  S
Cd971       O973   1.992       .  S
O972        C982   1.274       .  A
O973       Cd974   2.009       .  S
Cd974       O976   2.109       .  S
O975        C982   1.275       .  A
C977        O981   1.273       .  A
C983        O984   1.275       .  A
C985        C986   1.406       .  A
C985        C990   1.406       .  A
C986        C987   1.404       .  A
C986        H999   1.083       .  S
C987        C988   1.404       .  A
C987       H1000   1.083       .  S
C988        C989   1.403       .  A
C988        C991   1.452       .  S
C989        C990   1.402       .  A
C989       H1001   1.083       .  S
C990       H1002   1.083       .  S
C991        C992   1.213   1_655  T
C992        C993   1.452       .  S
C993        C994   1.399       .  A
C993        C998   1.406       .  A
C994        C995   1.398       .  A
C994       H1003   1.084       .  S
C995        C996   1.406       .  A
C995       H1004   1.084       .  S
C996        C997   1.405       .  A
C997        C998   1.408       .  A
C997       H1005   1.083       .  S
C998       H1006   1.083       .  S
C1007      C1008   1.406       .  A
C1007      C1012   1.406       .  A
C1008      C1009   1.403       .  A
C1008      H1021   1.083       .  S
C1009      C1010   1.403       .  A
C1009      H1022   1.083       .  S
C1010      C1011   1.402       .  A
C1010      C1013   1.452       .  S
C1011      C1012   1.403       .  A
C1011      H1023   1.081       .  S
C1012      H1024   1.083       .  S
C1013      C1014   1.214       .  T
C1014      C1015   1.452       .  S
C1015      C1016   1.397       .  A
C1015      C1020   1.405       .  A
C1016      C1017   1.397       .  A
C1016      H1025   1.084       .  S
C1017      C1018   1.411       .  A
C1017      H1026   1.083       .  S
C1018      C1019   1.408       .  A
C1019      C1020   1.409       .  A
C1019      H1027   1.083       .  S
C1020      H1028   1.082       .  S
C1029      C1030   1.407       .  A
C1029      C1034   1.408       .  A
C1030      C1031   1.397       .  A
C1030      H1043   1.083       .  S
C1031      C1032   1.399       .  A
C1031      H1044   1.084       .  S
C1032      C1033   1.396       .  A
C1032      C1035   1.431       .  S
C1033      C1034   1.393       .  A
C1033      H1045   1.084       .  S
C1034      H1046   1.083       .  S
C1035      C1036   1.202       .  T
C1036      C1037   1.433       .  S
C1037      C1038   1.399       .  A
C1037      C1042   1.397       .  A
C1038      C1039   1.398       .  A
C1038      H1047   1.083       .  S
C1039      C1040   1.408       .  A
C1039      H1048   1.083       .  S
C1040      C1041   1.407       .  A
C1041      C1042   1.394       .  A
C1041      H1049   1.083       .  S
C1042      H1050   1.084       .  S
C1051      C1052   1.408       .  A
C1051      C1056   1.410       .  A
C1052      C1053   1.406       .  A
C1052      H1065   1.083       .  S
C1053      C1054   1.404       .  A
C1053      H1066   1.079       .  S
C1054      C1055   1.398       .  A
C1054      C1057   1.449       .  S
C1055      C1056   1.397       .  A
C1055      H1067   1.084       .  S
C1056      H1068   1.083       .  S
C1057      C1058   1.212       .  T
C1058      C1059   1.449       .  S
C1059      C1060   1.402       .  A
C1059      C1064   1.402       .  A
C1060      C1061   1.401       .  A
C1060      H1069   1.083       .  S
C1061      C1062   1.406       .  A
C1061      H1070   1.083       .  S
C1062      C1063   1.406       .  A
C1063      C1064   1.402       .  A
C1063      H1071   1.083       .  S
C1064      H1072   1.082       .  S
C1073      C1074   1.407       .  A
C1073      C1078   1.406       .  A
C1074      C1075   1.396   1_565  A
C1074      H1087   1.084       .  S
C1075      C1076   1.398       .  A
C1075      H1088   1.084       .  S
C1076      C1077   1.407       .  A
C1076      C1079   1.451       .  S
C1077      C1078   1.409   1_545  A
C1077      H1089   1.083       .  S
C1078      H1090   1.083       .  S
C1079      C1080   1.213       .  T
C1080      C1081   1.451       .  S
C1081      C1082   1.403       .  A
C1081      C1086   1.403       .  A
C1082      C1083   1.402       .  A
C1082      H1091   1.083       .  S
C1083      C1084   1.405       .  A
C1083      H1092   1.083       .  S
C1084      C1085   1.407       .  A
C1085      C1086   1.403       .  A
C1085      H1093   1.083       .  S
C1086      H1094   1.083       .  S
C1095      C1096   1.408       .  A
C1095      C1100   1.407       .  A
C1096      C1097   1.395       .  A
C1096      H1109   1.083       .  S
C1097      C1098   1.397       .  A
C1097      H1110   1.084       .  S
C1098      C1099   1.399       .  A
C1098      C1101   1.435       .  S
C1099      C1100   1.398       .  A
C1099      H1111   1.084       .  S
C1100      H1112   1.083       .  S
C1101      C1102   1.203       .  T
C1102      C1103   1.436       .  S
C1103      C1104   1.397       .  A
C1103      C1108   1.400       .  A
C1104      C1105   1.395       .  A
C1104      H1113   1.084       .  S
C1105      C1106   1.409       .  A
C1105      H1114   1.083       .  S
C1106      C1107   1.407       .  A
C1107      C1108   1.399       .  A
C1107      H1115   1.083       .  S
C1108      H1116   1.083       .  S
C1117      C1118   1.405       .  A
C1117      C1122   1.405       .  A
C1118      C1119   1.401       .  A
C1118      H1131   1.083       .  S
C1119      C1120   1.401       .  A
C1119      H1132   1.081       .  S
C1120      C1121   1.403       .  A
C1120      C1123   1.448       .  S
C1121      C1122   1.401       .  A
C1121      H1133   1.083       .  S
C1122      H1134   1.083       .  S
C1123      C1124   1.211       .  T
C1124      C1125   1.447       .  S
C1125      C1126   1.405       .  A
C1125      C1130   1.398       .  A
C1126      C1127   1.407       .  A
C1126      H1135   1.083       .  S
C1127      C1128   1.406       .  A
C1127      H1136   1.083       .  S
C1128      C1129   1.408       .  A
C1129      C1130   1.396       .  A
C1129      H1137   1.083       .  S
C1130      H1138   1.084       .  S
C1139      C1140   1.407       .  A
C1139      C1144   1.406       .  A
C1140      C1141   1.397       .  A
C1140      H1153   1.083       .  S
C1141      C1142   1.398       .  A
C1141      H1154   1.084       .  S
C1142      C1143   1.407       .  A
C1142      C1145   1.452       .  S
C1143      C1144   1.410       .  A
C1143      H1155   1.083       .  S
C1144      H1156   1.083       .  S
C1145      C1146   1.214       .  T
C1146      C1147   1.452       .  S
C1147      C1148   1.404       .  A
C1147      C1152   1.402       .  A
C1148      C1149   1.404       .  A
C1148      H1157   1.083       .  S
C1149      C1150   1.407       .  A
C1149      H1158   1.083       .  S
C1150      C1151   1.406       .  A
C1151      C1152   1.402       .  A
C1151      H1159   1.083       .  S
C1152      H1160   1.083       .  S
C1161      C1162   1.408   1_545  A
C1161      C1166   1.407       .  A
C1162      C1163   1.394       .  A
C1162      H1175   1.083       .  S
C1163      C1164   1.397       .  A
C1163      H1176   1.084       .  S
C1164      C1165   1.399       .  A
C1164      C1167   1.432       .  S
C1165      C1166   1.396   1_565  A
C1165      H1177   1.084       .  S
C1166      H1178   1.083       .  S
C1167      C1168   1.202       .  T
C1168      C1169   1.433       .  S
C1169      C1170   1.396       .  A
C1169      C1174   1.400       .  A
C1170      C1171   1.393       .  A
C1170      H1179   1.084       .  S
C1171      C1172   1.408       .  A
C1171      H1180   1.083       .  S
C1172      C1173   1.407       .  A
C1173      C1174   1.399       .  A
C1173      H1181   1.083       .  S
C1174      H1182   1.084       .  S
C1183      C1184   1.410       .  A
C1183      C1188   1.407       .  A
C1184      C1185   1.398       .  A
C1184      H1197   1.084       .  S
C1185      C1186   1.398       .  A
C1185      H1198   1.084       .  S
C1186      C1187   1.409       .  A
C1186      C1189   1.458       .  S
C1187      C1188   1.413       .  A
C1187      H1199   1.083       .  S
C1188      H1200   1.083       .  S
C1189      C1190   1.217       .  T
C1190      C1191   1.458       .  S
C1191      C1192   1.403   1_655  A
C1191      C1196   1.405       .  A
C1192      C1193   1.403       .  A
C1192      H1201   1.083       .  S
C1193      C1194   1.407       .  A
C1193      H1202   1.083       .  S
C1194      C1195   1.408       .  A
C1195      C1196   1.407   1_455  A
C1195      H1203   1.083       .  S
C1196      H1204   1.083       .  S
C1205      C1206   1.407       .  A
C1205      C1210   1.406       .  A
C1206      C1207   1.404       .  A
C1206      H1219   1.083   1_565  S
C1207      C1208   1.402       .  A
C1207      H1220   1.082       .  S
C1208      C1209   1.403       .  A
C1208      C1211   1.453       .  S
C1209      C1210   1.402       .  A
C1209      H1221   1.083       .  S
C1210      H1222   1.083       .  S
C1211      C1212   1.214       .  T
C1212      C1213   1.453       .  S
C1213      C1214   1.405       .  A
C1213      C1218   1.398       .  A
C1214      C1215   1.409       .  A
C1214      H1223   1.082       .  S
C1215      C1216   1.409       .  A
C1215      H1224   1.083       .  S
C1216      C1217   1.411       .  A
C1217      C1218   1.398       .  A
C1217      H1225   1.083       .  S
C1218      H1226   1.084       .  S
C1227      C1228   1.407       .  A
C1227      C1232   1.408       .  A
C1228      C1229   1.398       .  A
C1228      H1241   1.083       .  S
C1229      C1230   1.399       .  A
C1229      H1242   1.084       .  S
C1230      C1231   1.396       .  A
C1230      C1233   1.432       .  S
C1231      C1232   1.392       .  A
C1231      H1243   1.084       .  S
C1232      H1244   1.083       .  S
C1233      C1234   1.202       .  T
C1234      C1235   1.434       .  S
C1235      C1236   1.400       .  A
C1235      C1240   1.397       .  A
C1236      C1237   1.398       .  A
C1236      H1245   1.084       .  S
C1237      C1238   1.407   1_455  A
C1237      H1246   1.083       .  S
C1238      C1239   1.409       .  A
C1239      C1240   1.395   1_655  A
C1239      H1247   1.083       .  S
C1240      H1248   1.084       .  S
C1249      C1250   1.405       .  A
C1249      C1254   1.406       .  A
C1250      C1251   1.408       .  A
C1250      H1263   1.083       .  S
C1251      C1252   1.406       .  A
C1251      H1264   1.083       .  S
C1252      C1253   1.399       .  A
C1252      C1255   1.452       .  S
C1253      C1254   1.398       .  A
C1253      H1265   1.084       .  S
C1254      H1266   1.084       .  S
C1255      C1256   1.213       .  T
C1256      C1257   1.452   1_655  S
C1257      C1258   1.404       .  A
C1257      C1262   1.403       .  A
C1258      C1259   1.404       .  A
C1258      H1267   1.083       .  S
C1259      C1260   1.406       .  A
C1259      H1268   1.083       .  S
C1260      C1261   1.406       .  A
C1261      C1262   1.402       .  A
C1261      H1269   1.083       .  S
C1262      H1270   1.083   1_455  S
C1271      C1272   1.409       .  A
C1271      C1276   1.410       .  A
C1272      C1273   1.396       .  A
C1272      H1285   1.083       .  S
C1273      C1274   1.397       .  A
C1273      H1286   1.084       .  S
C1274      C1275   1.404       .  A
C1274      C1277   1.447       .  S
C1275      C1276   1.407       .  A
C1275      H1287   1.082       .  S
C1276      H1288   1.083       .  S
C1277      C1278   1.211       .  T
C1278      C1279   1.448       .  S
C1279      C1280   1.401       .  A
C1279      C1284   1.402       .  A
C1280      C1281   1.402       .  A
C1280      H1289   1.081       .  S
C1281      C1282   1.407       .  A
C1281      H1290   1.083       .  S
C1282      C1283   1.405       .  A
C1283      C1284   1.400       .  A
C1283      H1291   1.083       .  S
C1284      H1292   1.083       .  S
C1293      C1294   1.408       .  A
C1293      C1298   1.408       .  A
C1294      C1295   1.399       .  A
C1294      H1307   1.083       .  S
C1295      C1296   1.400       .  A
C1295      H1308   1.083       .  S
C1296      C1297   1.396       .  A
C1296      C1299   1.434       .  S
C1297      C1298   1.393       .  A
C1297      H1309   1.084       .  S
C1298      H1310   1.083       .  S
C1299      C1300   1.202       .  T
C1300      C1301   1.433       .  S
C1301      C1302   1.399       .  A
C1301      C1306   1.396       .  A
C1302      C1303   1.397       .  A
C1302      H1311   1.084       .  S
C1303      C1304   1.407       .  A
C1303      H1312   1.083       .  S
C1304      C1305   1.409       .  A
C1305      C1306   1.394       .  A
C1305      H1313   1.083       .  S
C1306      H1314   1.084       .  S
C1315      C1316   1.405       .  A
C1315      C1320   1.407       .  A
C1316      C1317   1.399       .  A
C1316      H1329   1.083       .  S
C1317      C1318   1.402       .  A
C1317      H1330   1.083       .  S
C1318      C1319   1.404       .  A
C1318      C1321   1.451       .  S
C1319      C1320   1.405       .  A
C1319      H1331   1.083       .  S
C1320      H1332   1.083       .  S
C1321      C1322   1.213       .  T
C1322      C1323   1.451       .  S
C1323      C1324   1.397       .  A
C1323      C1328   1.407       .  A
C1324      C1325   1.395       .  A
C1324      H1333   1.084       .  S
C1325      C1326   1.409       .  A
C1325      H1334   1.083       .  S
C1326      C1327   1.407       .  A
C1327      C1328   1.410       .  A
C1327      H1335   1.083       .  S
C1328      H1336   1.083       .  S
C1337      C1338   1.407       .  A
C1337      C1342   1.409       .  A
C1338      C1339   1.408       .  A
C1338      H1351   1.083       .  S
C1339      C1340   1.405       .  A
C1339      H1352   1.083       .  S
C1340      C1341   1.397       .  A
C1340      C1343   1.447       .  S
C1341      C1342   1.395       .  A
C1341      H1353   1.084       .  S
C1342      H1354   1.083       .  S
C1343      C1344   1.211       .  T
C1344      C1345   1.448       .  S
C1345      C1346   1.402       .  A
C1345      C1350   1.401       .  A
C1346      C1347   1.401       .  A
C1346      H1355   1.083       .  S
C1347      C1348   1.406       .  A
C1347      H1356   1.083   1_565  S
C1348      C1349   1.406       .  A
C1349      C1350   1.401       .  A
C1349      H1357   1.083       .  S
C1350      H1358   1.082       .  S
C1359      C1360   1.407       .  A
C1359      C1364   1.407       .  A
C1360      C1361   1.394       .  A
C1360      H1373   1.083       .  S
C1361      C1362   1.397       .  A
C1361      H1374   1.084       .  S
C1362      C1363   1.399       .  A
C1362      C1365   1.433       .  S
C1363      C1364   1.397       .  A
C1363      H1375   1.083       .  S
C1364      H1376   1.083       .  S
C1365      C1366   1.202   1_565  T
C1366      C1367   1.434       .  S
C1367      C1368   1.398       .  A
C1367      C1372   1.398       .  A
C1368      C1369   1.396       .  A
C1368      H1377   1.084       .  S
C1369      C1370   1.408       .  A
C1369      H1378   1.083       .  S
C1370      C1371   1.408       .  A
C1371      C1372   1.397       .  A
C1371      H1379   1.083       .  S
C1372      H1380   1.083       .  S
C1381      C1382   1.405       .  A
C1381      C1386   1.405       .  A
C1382      C1383   1.407       .  A
C1382      H1395   1.083       .  S
C1383      C1384   1.406       .  A
C1383      H1396   1.083       .  S
C1384      C1385   1.400       .  A
C1384      C1387   1.451       .  S
C1385      C1386   1.399       .  A
C1385      H1397   1.084       .  S
C1386      H1398   1.083       .  S
C1387      C1388   1.213       .  T
C1388      C1389   1.451       .  S
C1389      C1390   1.404       .  A
C1389      C1394   1.402       .  A
C1390      C1391   1.404       .  A
C1390      H1399   1.083       .  S
C1391      C1392   1.407       .  A
C1391      H1400   1.083       .  S
C1392      C1393   1.405       .  A
C1393      C1394   1.401       .  A
C1393      H1401   1.083       .  S
C1394      H1402   1.083       .  S
C1403      C1404   1.409       .  A
C1403      C1408   1.408       .  A
C1404      C1405   1.398       .  A
C1404      H1417   1.083       .  S
C1405      C1406   1.398       .  A
C1405      H1418   1.084       .  S
C1406      C1407   1.406       .  A
C1406      C1409   1.452       .  S
C1407      C1408   1.409       .  A
C1407      H1419   1.083       .  S
C1408      H1420   1.083       .  S
C1409      C1410   1.214       .  T
C1410      C1411   1.452       .  S
C1411      C1412   1.402       .  A
C1411      C1416   1.402       .  A
C1412      C1413   1.402       .  A
C1412      H1421   1.083       .  S
C1413      C1414   1.407       .  A
C1413      H1422   1.083       .  S
C1414      C1415   1.407       .  A
C1415      C1416   1.403       .  A
C1415      H1423   1.083       .  S
C1416      H1424   1.081       .  S
C1425      C1426   1.407       .  A
C1425      C1430   1.409       .  A
C1426      C1427   1.397       .  A
C1426      H1439   1.083       .  S
C1427      C1428   1.399       .  A
C1427      H1440   1.084       .  S
C1428      C1429   1.396       .  A
C1428      C1431   1.433       .  S
C1429      C1430   1.395       .  A
C1429      H1441   1.084       .  S
C1430      H1442   1.083       .  S
C1431      C1432   1.202       .  T
C1432      C1433   1.434       .  S
C1433      C1434   1.400       .  A
C1433      C1438   1.397       .  A
C1434      C1435   1.400       .  A
C1434      H1443   1.083       .  S
C1435      C1436   1.408       .  A
C1435      H1444   1.083       .  S
C1436      C1437   1.408       .  A
C1437      C1438   1.393       .  A
C1437      H1445   1.083       .  S
C1438      H1446   1.084       .  S
C1447      C1448   1.405       .  A
C1447      C1452   1.406       .  A
C1448      C1449   1.400       .  A
C1448      H1461   1.083       .  S
C1449      C1450   1.401       .  A
C1449      H1462   1.083       .  S
C1450      C1451   1.401       .  A
C1450      C1453   1.447       .  S
C1451      C1452   1.402       .  A
C1451      H1463   1.081       .  S
C1452      H1464   1.083       .  S
C1453      C1454   1.211       .  T
C1454      C1455   1.447   1_565  S
C1455      C1456   1.404       .  A
C1455      C1460   1.398       .  A
C1456      C1457   1.406       .  A
C1456      H1465   1.083       .  S
C1457      C1458   1.408       .  A
C1457      H1466   1.083       .  S
C1458      C1459   1.408       .  A
C1459      C1460   1.397       .  A
C1459      H1467   1.083       .  S
C1460      H1468   1.084       .  S
C1469      C1470   1.405       .  A
C1469      C1474   1.407       .  A
C1470      C1471   1.400       .  A
C1470      H1483   1.083       .  S
C1471      C1472   1.402       .  A
C1471      H1484   1.083       .  S
C1472      C1473   1.403       .  A
C1472      C1475   1.449       .  S
C1473      C1474   1.403       .  A
C1473      H1485   1.083       .  S
C1474      H1486   1.083       .  S
C1475      C1476   1.212       .  T
C1476      C1477   1.449       .  S
C1477      C1478   1.400       .  A
C1477      C1482   1.405       .  A
C1478      C1479   1.398       .  A
C1478      H1487   1.084       .  S
C1479      C1480   1.405       .  A
C1479      H1488   1.084       .  S
C1480      C1481   1.405       .  A
C1481      C1482   1.407       .  A
C1481      H1489   1.083       .  S
C1482      H1490   1.083       .  S
C1491      C1492   1.408       .  A
C1491      C1496   1.408       .  A
C1492      C1493   1.392   1_455  A
C1492      H1505   1.083       .  S
C1493      C1494   1.396       .  A
C1493      H1506   1.084       .  S
C1494      C1495   1.400   1_655  A
C1494      C1497   1.433       .  S
C1495      C1496   1.400       .  A
C1495      H1507   1.083       .  S
C1496      H1508   1.083       .  S
C1497      C1498   1.201       .  T
C1498      C1499   1.431       .  S
C1499      C1500   1.395       .  A
C1499      C1504   1.400       .  A
C1500      C1501   1.393       .  A
C1500      H1509   1.084       .  S
C1501      C1502   1.409       .  A
C1501      H1510   1.083       .  S
C1502      C1503   1.406       .  A
C1503      C1504   1.397       .  A
C1503      H1511   1.083       .  S
C1504      H1512   1.084       .  S
C1513      C1514   1.409       .  A
C1513      C1518   1.411       .  A
C1514      C1515   1.411       .  A
C1514      H1527   1.083       .  S
C1515      C1516   1.407       .  A
C1515      H1528   1.083       .  S
C1516      C1517   1.399       .  A
C1516      C1519   1.457       .  S
C1517      C1518   1.399       .  A
C1517      H1529   1.084       .  S
C1518      H1530   1.083       .  S
C1519      C1520   1.216       .  T
C1520      C1521   1.457       .  S
C1521      C1522   1.403       .  A
C1521      C1526   1.403       .  A
C1522      C1523   1.404       .  A
C1522      H1531   1.083       .  S
C1523      C1524   1.407       .  A
C1523      H1532   1.083       .  S
C1524      C1525   1.407       .  A
C1525      C1526   1.405       .  A
C1525      H1533   1.083       .  S
C1526      H1534   1.081       .  S
C1535      C1536   1.407       .  A
C1535      C1540   1.404       .  A
C1536      C1537   1.408       .  A
C1536      H1549   1.083       .  S
C1537      C1538   1.405       .  A
C1537      H1550   1.083       .  S
C1538      C1539   1.402       .  A
C1538      C1541   1.456       .  S
C1539      C1540   1.402       .  A
C1539      H1551   1.083       .  S
C1540      H1552   1.083       .  S
C1541      C1542   1.216       .  T
C1542      C1543   1.456       .  S
C1543      C1544   1.406       .  A
C1543      C1548   1.402       .  A
C1544      C1545   1.407       .  A
C1544      H1553   1.083       .  S
C1545      C1546   1.408       .  A
C1545      H1554   1.083       .  S
C1546      C1547   1.405       .  A
C1547      C1548   1.401       .  A
C1547      H1555   1.083       .  S
C1548      H1556   1.083       .  S
C1557      C1558   1.408       .  A
C1557      C1562   1.409       .  A
C1558      C1559   1.400       .  A
C1558      H1571   1.083       .  S
C1559      C1560   1.400       .  A
C1559      H1572   1.083       .  S
C1560      C1561   1.397       .  A
C1560      C1563   1.436       .  S
C1561      C1562   1.395       .  A
C1561      H1573   1.084       .  S
C1562      H1574   1.083       .  S
C1563      C1564   1.204       .  T
C1564      C1565   1.435       .  S
C1565      C1566   1.400       .  A
C1565      C1570   1.397       .  A
C1566      C1567   1.398       .  A
C1566      H1575   1.084       .  S
C1567      C1568   1.407       .  A
C1567      H1576   1.083       .  S
C1568      C1569   1.409       .  A
C1569      C1570   1.396       .  A
C1569      H1577   1.083       .  S
C1570      H1578   1.084       .  S
