geometry optimzed in LAMMPS
_audit_creation_date              2020-11-30 
_audit_creation_method            'lammps2cif' 
_symmetry_space_group_name_H-M    'P1' 
_symmetry_Int_Tables_number       1 
_symmetry_cell_setting            triclinic 
loop_ 
_symmetry_equiv_pos_as_xyz 
  x,y,z 
_cell_length_a                    38.78063915 
_cell_length_b                    38.65151143291847 
_cell_length_c                    29.28655587147899 
_cell_angle_alpha                 89.8783232387896 
_cell_angle_beta                  90.41817011574257 
_cell_angle_gamma                 88.95474955424878 
loop_ 
_atom_site_label 
_atom_site_type_symbol 
_atom_site_fract_x 
_atom_site_fract_y 
_atom_site_fract_z 
_atom_site_charge 
C1          C  0.25358262  0.14340571  0.35354177    -0.01700
C2          C  0.07953924  0.31726647  0.35388599    -0.01700
C3          C  0.42272284  0.31174557  0.34970337    -0.01700
C4          C  0.24857568  0.48582975  0.35304369    -0.01700
C5          C  0.25247557  0.14301575  0.03783329    -0.01700
C6          C  0.07803948  0.31648878  0.03782229    -0.01700
C7          C  0.42113903  0.31293084  0.03392889    -0.01700
C8          C  0.24665152  0.48575822  0.03711558    -0.01700
O9          O  0.46349112  0.34195012  0.48784595    -0.71000
O10         O  0.03438836  0.34332806  0.39955133    -0.71200
O11         O  0.46483521  0.34183573  0.39709741    -0.71100
O12         O  0.03303894  0.34330229  0.49101360    -0.71100
O13         O  0.03591096  0.28722536  0.49057200    -0.71100
O14         O  0.46737214  0.28589593  0.39748104    -0.71100
O15         O  0.03693821  0.28737735  0.39982117    -0.71000
O16         O  0.46628493  0.28586305  0.48887548    -0.71200
V17         V  0.49907170  0.34153272  0.44389631     1.35200
V18         V  0.00148970  0.28766728  0.44417207     1.35200
C19         C  0.45192891  0.31363184  0.50238191     0.78200
C20         C  0.04881362  0.31565185  0.38582933     0.78300
C21         C  0.45320246  0.31354371  0.38271821     0.78100
C22         C  0.04717464  0.31555969  0.50555714     0.78100
O23         O  0.27778592  0.02933572  0.39910159    -0.71000
O24         O  0.27862634  0.09647160  0.49382497    -0.71200
O25         O  0.27674589  0.02676946  0.48973691    -0.71100
O26         O  0.27932099  0.09933346  0.40242265    -0.71100
O27         O  0.22356848  0.10021608  0.39846727    -0.71100
O28         O  0.22098044  0.03182997  0.49150177    -0.71100
O29         O  0.22295398  0.10161967  0.48934015    -0.71000
O30         O  0.22198615  0.03028541  0.40010692    -0.71200
V31         V  0.27706887  0.06313028  0.44622204     1.35200
V32         V  0.22341845  0.06585130  0.44486623     1.35200
C33         C  0.24975019  0.01672894  0.38535724     0.78200
C34         C  0.25115466  0.11187544  0.50611439     0.78300
C35         C  0.24826800  0.01638907  0.50490592     0.78100
C36         C  0.25181849  0.11293351  0.38635957     0.78100
C37         C  0.36983255  0.39025628  0.05809085     0.21100
C38         C  0.34819789  0.41108815  0.08510673    -0.38800
C39         C  0.32508491  0.43289185  0.06124771     0.20100
C40         C  0.32312721  0.43344232  0.01415926     0.22700
C41         C  0.34401829  0.41184766  0.98727704    -0.39300
C42         C  0.36804358  0.39092807  0.01095170     0.21500
N43         N  0.39099263  0.36461283  0.07262076    -0.32600
C44         C  0.40295725  0.34855094  0.03443918    -0.10100
C45         C  0.38950214  0.36491174  0.99530001    -0.28900
N46         N  0.29682180  0.45386348  0.99990616    -0.45500
C47         C  0.28146785  0.46635163  0.03815958    -0.04800
C48         C  0.29868031  0.45359366  0.07716771    -0.22200
H49         H  0.34834614  0.40937633  0.12200548     0.19600
H50         H  0.34019335  0.40982898  0.95095155     0.18400
H51         H  0.39175289  0.35598432  0.96048481     0.14700
H52         H  0.29136763  0.45650898  0.11253542     0.14600
H53         H  0.39416293  0.35682305  0.10656057     0.32700
H54         H  0.28808646  0.45704488  0.96625841     0.35500
C55         C  0.12650191  0.39269946  0.00697403     0.21100
C56         C  0.13314963  0.42836807  0.00782713    -0.38800
C57         C  0.16815873  0.43723176  0.00723898     0.20100
C58         C  0.19419228  0.41238545  0.00579987     0.22700
C59         C  0.18754557  0.37703835  0.00432185    -0.39300
C60         C  0.15286020  0.36825266  0.00512288     0.21500
N61         N  0.09630649  0.37733016  0.01499151    -0.32600
C62         C  0.10364877  0.34287569  0.01944671    -0.10100
C63         C  0.13882923  0.33651978  0.01214506    -0.28900
N64         N  0.22498044  0.42641631  0.01294790    -0.45500
C65         C  0.21910363  0.46076655  0.01991698    -0.04800
C66         C  0.18371928  0.46851865  0.01518315    -0.22200
H67         H  0.11278981  0.44758403  0.01211540     0.19600
H68         H  0.20803748  0.35766257  0.00583563     0.18400
H69         H  0.15331882  0.31255569  0.01638298     0.14700
H70         H  0.17079303  0.49303265  0.02174210     0.14600
H71         H  0.07284029  0.38994045  0.02167135     0.32700
H72         H  0.24798147  0.41225713  0.01679401     0.35500
C73         C  0.17516731  0.19486194  0.06190002     0.21100
C74         C  0.15369583  0.21626433  0.08859226    -0.38800
C75         C  0.13054345  0.23797169  0.06437252     0.20100
C76         C  0.12927363  0.23869520  0.01724438     0.22700
C77         C  0.15137333  0.21800918  0.99074581    -0.39300
C78         C  0.17381069  0.19560347  0.01477537     0.21500
N79         N  0.20154482  0.17458018  0.07653529    -0.32600
C80         C  0.21729645  0.16204735  0.03840432    -0.10100
C81         C  0.20027330  0.17462835  0.99924641    -0.28900
N82         N  0.10820500  0.26434484  0.00233245    -0.45500
C83         C  0.09616085  0.28079848  0.04008188    -0.04800
C84         C  0.10947126  0.26454670  0.07956865    -0.22200
H85         H  0.15593489  0.21708688  0.12543558     0.19600
H86         H  0.15263985  0.22093323  0.95427255     0.18400
H87         H  0.20841712  0.17147417  0.96425759     0.14700
H88         H  0.10708246  0.27301253  0.11460225     0.14600
H89         H  0.20962812  0.17187303  0.11045101     0.32700
H90         H  0.10487727  0.27241325  0.96852684     0.35500
C91         C  0.30453491  0.21638984  0.00612806     0.21100
C92         C  0.31114843  0.25168865  0.00457595    -0.38800
C93         C  0.34581862  0.26044665  0.00458877     0.20100
C94         C  0.37228744  0.23609952  0.00587931     0.22700
C95         C  0.36566840  0.20040999  0.00718756    -0.39300
C96         C  0.33060374  0.19154817  0.00720580     0.21500
N97         N  0.27381809  0.20238738  0.01338036    -0.32600
C98         C  0.27971241  0.16799528  0.01992262    -0.10100
C99         C  0.31509175  0.16025412  0.01506046    -0.28900
N100        N  0.40270485  0.25163409  0.01250946    -0.45500
C101        C  0.39534540  0.28610711  0.01661900    -0.04800
C102        C  0.35987926  0.29217417  0.01080180    -0.22200
H103        H  0.29069193  0.27106561  0.00631966     0.19600
H104        H  0.38613071  0.18118339  0.01101204     0.18400
H105        H  0.32813675  0.13573310  0.02155815     0.14700
H106        H  0.34527389  0.31595985  0.01556238     0.14600
H107        H  0.25094501  0.21656929  0.01776173     0.32700
H108        H  0.42643221  0.23916070  0.01844340     0.35500
C109        C  0.24797426  0.01629060  0.23646524     0.21100
C110        C  0.26463524  0.02689210  0.19642855    -0.38800
C111        C  0.24869762  0.01748932  0.15511016     0.20100
C112        C  0.21943399  0.49756655  0.15400730     0.22700
C113        C  0.20313761  0.48668028  0.19381054    -0.39300
C114        C  0.21837768  0.49694814  0.23484089     0.21500
N115        N  0.25997227  0.01814317  0.27958351    -0.32600
C116        C  0.23852884  0.99884574  0.30548226    -0.10100
C117        C  0.21184061  0.48588121  0.27833669    -0.28900
N118        N  0.21295982  0.48632227  0.11164751    -0.45500
C119        C  0.23830802  0.99897426  0.08497840    -0.04800
C120        C  0.26029386  0.01982789  0.11083299    -0.22200
H121        H  0.28896740  0.04017437  0.19735970     0.19600
H122        H  0.18146999  0.46942154  0.19290558     0.18400
H123        H  0.19271838  0.46710924  0.28734124     0.14700
H124        H  0.28417479  0.03110804  0.09973574     0.14600
H125        H  0.28334770  0.02871663  0.28998452     0.32700
H126        H  0.19447037  0.46809556  0.10323520     0.35500
C127        C  0.45239956  0.31272922  0.15056441     0.21100
C128        C  0.46331474  0.32945276  0.19062319    -0.38800
C129        C  0.45408088  0.31358853  0.23194008     0.20100
C130        C  0.43443454  0.28413013  0.23295601     0.22700
C131        C  0.42310956  0.26787606  0.19317510    -0.39300
C132        C  0.43284682  0.28324378  0.15221750     0.21500
N133        N  0.45385421  0.32476807  0.10749170    -0.32600
C134        C  0.43363398  0.30371619  0.08199104    -0.10100
C135        C  0.42096667  0.27697066  0.10899333    -0.28900
N136        N  0.42361072  0.27754251  0.27530433    -0.45500
C137        C  0.43636801  0.30291066  0.30227242    -0.04800
C138        C  0.45642181  0.32537030  0.27627374    -0.22200
H139        H  0.47660212  0.35383194  0.18972403     0.19600
H140        H  0.40581032  0.24621877  0.19409143     0.18400
H141        H  0.40223883  0.25772308  0.09998899     0.14700
H142        H  0.46735180  0.34953196  0.28739906     0.14600
H143        H  0.46479820  0.34793617  0.09696326     0.32700
H144        H  0.40514200  0.25925960  0.28325590     0.35500
C145        C  0.37735002  0.39588984  0.35348337     0.21100
C146        C  0.36608286  0.42738863  0.37273063    -0.38800
C147        C  0.33451592  0.44086471  0.35599764     0.20100
C148        C  0.31659349  0.42493478  0.32126314     0.22700
C149        C  0.32837175  0.39417574  0.30095094    -0.39300
C150        C  0.35921997  0.38022594  0.31870719     0.21500
N151        N  0.40324172  0.37506618  0.36855545    -0.32600
C152        C  0.40155529  0.34558754  0.34323480    -0.10100
C153        C  0.37459269  0.34854782  0.31122780    -0.28900
N154        N  0.28570935  0.44027490  0.31497557    -0.45500
C155        C  0.28296203  0.46597644  0.34646001    -0.04800
C156        C  0.31352548  0.46727768  0.37246777    -0.22200
H157        H  0.37954974  0.43912074  0.40107803     0.19600
H158        H  0.31334510  0.38080037  0.27542404     0.18400
H159        H  0.36585165  0.32881140  0.28788989     0.14700
H160        H  0.31914348  0.48298540  0.40193222     0.14600
H161        H  0.41897049  0.38050430  0.39646393     0.32700
H162        H  0.26646043  0.43211027  0.29251433     0.35500
C163        C  0.04832634  0.31818483  0.15444882     0.21100
C164        C  0.03722206  0.30179688  0.19450681    -0.38800
C165        C  0.04767398  0.31698833  0.23579118     0.20100
C166        C  0.06869007  0.34547028  0.23687039     0.22700
C167        C  0.08038905  0.36129211  0.19704061    -0.39300
C168        C  0.06932657  0.34664945  0.15601607     0.21500
N169        N  0.04548771  0.30649867  0.11137007    -0.32600
C170        C  0.06612975  0.32670541  0.08558815    -0.10100
C171        C  0.08065921  0.35261021  0.11256089    -0.28900
N172        N  0.08001531  0.35148411  0.27935539    -0.45500
C173        C  0.06628397  0.32662501  0.30619937    -0.04800
C174        C  0.04514376  0.30514653  0.28006484    -0.22200
H175        H  0.02278572  0.27809540  0.19360713     0.19600
H176        H  0.09868520  0.38210801  0.19796089     0.18400
H177        H  0.10026862  0.37082616  0.10331636     0.14700
H178        H  0.03311590  0.28154066  0.29114339     0.14600
H179        H  0.03336964  0.28388271  0.10098984     0.32700
H180        H  0.09918286  0.36901781  0.28767347     0.35500
C181        C  0.17188885  0.43791497  0.38341697     0.21100
C182        C  0.13642236  0.43121159  0.38059207    -0.38800
C183        C  0.12738617  0.39623832  0.38367780     0.20100
C184        C  0.15179838  0.37009605  0.38962072     0.22700
C185        C  0.18708733  0.37686576  0.39321154    -0.39300
C186        C  0.19612711  0.41166388  0.38955021     0.21500
N187        N  0.18741584  0.46785348  0.37373579    -0.32600
C188        C  0.22184384  0.46048622  0.37176543    -0.10100
C189        C  0.22806543  0.42573824  0.38365407    -0.28900
N190        N  0.13765545  0.33894730  0.38415128    -0.45500
C191        C  0.10405739  0.34493025  0.37246509    -0.04800
C192        C  0.09649752  0.38057740  0.37417332    -0.22200
H193        H  0.11755209  0.45139532  0.37285832     0.19600
H194        H  0.20632804  0.35626279  0.39513118     0.18400
H195        H  0.25238401  0.41158534  0.38403618     0.14700
H196        H  0.07260668  0.39346966  0.36415010     0.14600
H197        H  0.17502407  0.49108961  0.36455745     0.32700
H198        H  0.15111497  0.31533219  0.38536458     0.35500
C199        C  0.28192304  0.13109112  0.23750331     0.21100
C200        C  0.29773839  0.14269380  0.19772162    -0.38800
C201        C  0.28236983  0.13263499  0.15668079     0.20100
C202        C  0.25329627  0.11255954  0.15496135     0.22700
C203        C  0.23708399  0.10128613  0.19499012    -0.39300
C204        C  0.25292643  0.11082243  0.23633420     0.21500
N205        N  0.28824705  0.14233858  0.27990484    -0.32600
C206        C  0.26305679  0.12934325  0.30657992    -0.10100
C207        C  0.24117220  0.10853855  0.28052182    -0.28900
N208        N  0.24113331  0.11076917  0.11186278    -0.45500
C209        C  0.26182505  0.13104586  0.08622146    -0.04800
C210        C  0.28827442  0.14443112  0.11339609    -0.22200
H211        H  0.31901558  0.16043252  0.19870254     0.19600
H212        H  0.21299504  0.08757732  0.19406511     0.18400
H213        H  0.21720557  0.09732683  0.29141687     0.14700
H214        H  0.30711357  0.16351275  0.10444451     0.14600
H215        H  0.30610308  0.16123667  0.28812124     0.32700
H216        H  0.21820303  0.09935931  0.10132537     0.35500
C217        C  0.16918190  0.18800943  0.35436561     0.21100
C218        C  0.13740717  0.19910525  0.37252069    -0.38800
C219        C  0.12447577  0.23108366  0.35629516     0.20100
C220        C  0.14110766  0.24957498  0.32293858     0.22700
C221        C  0.17200653  0.23785088  0.30338736    -0.39300
C222        C  0.18540555  0.20656381  0.32065823     0.21500
N223        N  0.18980387  0.16205328  0.36988205    -0.32600
C224        C  0.21964934  0.16413588  0.34583482    -0.10100
C225        C  0.21709444  0.19126349  0.31406990    -0.28900
N226        N  0.12613847  0.28077521  0.31721735    -0.45500
C227        C  0.09999166  0.28312413  0.34778595    -0.04800
C228        C  0.09796654  0.25194735  0.37240437    -0.22200
H229        H  0.12504617  0.18521244  0.39984012     0.19600
H230        H  0.18591612  0.25324759  0.27897051     0.18400
H231        H  0.23719833  0.20036035  0.29182616     0.14700
H232        H  0.08158971  0.24555728  0.40069174     0.14600
H233        H  0.18408288  0.14607625  0.39736273     0.32700
H234        H  0.13464805  0.30037778  0.29565599     0.35500
C235        C  0.33152548  0.19029190  0.38192782     0.21100
C236        C  0.36682456  0.19708165  0.37706569    -0.38800
C237        C  0.37591536  0.23207920  0.37973497     0.20100
C238        C  0.35173050  0.25812289  0.38711577     0.22700
C239        C  0.31671646  0.25126321  0.39292602    -0.39300
C240        C  0.30759861  0.21649222  0.38969160     0.22100
N241        N  0.31553800  0.16050184  0.37254588    -0.32600
C242        C  0.28111001  0.16809238  0.37206670    -0.10100
C243        C  0.27545975  0.20257880  0.38521691    -0.28900
N244        N  0.36551706  0.28934574  0.38103200    -0.45500
C245        C  0.39864991  0.28357498  0.36775711    -0.04800
C246        C  0.40637723  0.24792389  0.36891489    -0.22200
H247        H  0.38535520  0.17699396  0.36809899     0.19600
H248        H  0.29754893  0.27181784  0.39602334     0.18400
H249        H  0.25122622  0.21677581  0.38718608     0.14700
H250        H  0.43004614  0.23520448  0.35816756     0.14600
H251        H  0.32743500  0.13733516  0.36237745     0.32700
H252        H  0.35213412  0.31293290  0.38347238     0.35500
C253        C  0.25357799  0.14341607  0.85352575    -0.01700
C254        C  0.07955106  0.31728265  0.85389751    -0.01700
C255        C  0.42270605  0.31176106  0.84974058    -0.01700
C256        C  0.24858135  0.48583690  0.85305345    -0.01700
C257        C  0.25246963  0.14301877  0.53782966    -0.01700
C258        C  0.07802072  0.31648058  0.53783236    -0.01700
C259        C  0.42114337  0.31291767  0.53395618    -0.01700
C260        C  0.24662051  0.48573736  0.53712485    -0.01700
O261        O  0.46349480  0.34196161  0.98783722    -0.71000
O262        O  0.03440079  0.34334456  0.89956127    -0.71200
O263        O  0.46484338  0.34184884  0.89709782    -0.71100
O264        O  0.03304759  0.34331458  0.99101774    -0.71100
O265        O  0.03593247  0.28723818  0.99055304    -0.71100
O266        O  0.46736618  0.28590828  0.89749814    -0.71100
O267        O  0.03693569  0.28739299  0.89980614    -0.71000
O268        O  0.46630020  0.28587481  0.98888413    -0.71200
V269        V  0.49908008  0.34154606  0.94389751     1.35200
V270        V  0.00149750  0.28768023  0.94417062     1.35200
C271        C  0.45193340  0.31364311  0.00237271     0.78200
C272        C  0.04882183  0.31566859  0.88583317     0.78300
C273        C  0.45319654  0.31355651  0.88273806     0.78100
C274        C  0.04719360  0.31557183  0.00554462     0.78100
O275        O  0.27780103  0.02934808  0.89908559    -0.71000
O276        O  0.27862967  0.09647038  0.99382367    -0.71200
O277        O  0.27674784  0.02677067  0.98971178    -0.71100
O278        O  0.27932593  0.09935154  0.90241833    -0.71100
O279        O  0.22357390  0.10021575  0.89843963    -0.71100
O280        O  0.22098302  0.03184211  0.99148330    -0.71100
O281        O  0.22295907  0.10163088  0.98931646    -0.71000
O282        O  0.22200112  0.03028296  0.90009704    -0.71200
V283        V  0.27707548  0.06313895  0.94620889     1.35200
V284        V  0.22342520  0.06585745  0.94484553     1.35200
C285        C  0.24976847  0.01672657  0.88535642     0.78200
C286        C  0.25115870  0.11187635  0.00610917     0.78300
C287        C  0.24826801  0.01639490  0.00488083     0.78100
C288        C  0.25182203  0.11294369  0.88634521     0.78100
C289        C  0.36975711  0.39017571  0.55816320     0.21100
C290        C  0.34806966  0.41095545  0.58517468    -0.38800
C291        C  0.32498949  0.43279118  0.56131067     0.20100
C292        C  0.32310672  0.43341620  0.51421907     0.22700
C293        C  0.34405129  0.41187273  0.48733596    -0.39300
C294        C  0.36804258  0.39091900  0.51102174     0.21500
N295        N  0.39091852  0.36453020  0.57268336    -0.32600
C296        C  0.40296039  0.34853676  0.53449450    -0.10100
C297        C  0.38954435  0.36493970  0.49536097    -0.28900
N298        N  0.29683006  0.45387002  0.49994800    -0.45500
C299        C  0.28142885  0.46631554  0.53819306    -0.04800
C300        C  0.29857120  0.45348314  0.57721294    -0.22200
H301        H  0.34816465  0.40919127  0.62206900     0.19600
H302        H  0.34030123  0.40992729  0.45099083     0.18400
H303        H  0.39185809  0.35606891  0.46052754     0.14700
H304        H  0.29120675  0.45635602  0.61256791     0.14600
H305        H  0.39404414  0.35669060  0.60661033     0.32700
H306        H  0.28815175  0.45711058  0.46628436     0.35500
C307        C  0.12646020  0.39269832  0.50695689     0.21100
C308        C  0.13310743  0.42836721  0.50783628    -0.38800
C309        C  0.16811593  0.43723294  0.50722827     0.20100
C310        C  0.19414895  0.41238799  0.50574105     0.22700
C311        C  0.18750169  0.37704104  0.50423361    -0.39300
C312        C  0.15281731  0.36825233  0.50505961     0.21500
N313        N  0.09627200  0.37732471  0.51500323    -0.32600
C314        C  0.10361900  0.34286919  0.51943658    -0.10100
C315        C  0.13879164  0.33651460  0.51208021    -0.28900
N316        N  0.22494017  0.42641450  0.51288536    -0.45500
C317        C  0.21906597  0.46075842  0.51990926    -0.04800
C318        C  0.18368013  0.46851447  0.51520302    -0.22200
H319        H  0.11274958  0.44757960  0.51216649     0.19600
H320        H  0.20799480  0.35766541  0.50571379     0.18400
H321        H  0.15328100  0.31254676  0.51628219     0.14700
H322        H  0.17075733  0.49302404  0.52180190     0.14600
H323        H  0.07281063  0.38993205  0.52172091     0.32700
H324        H  0.24794407  0.41225408  0.51668926     0.35500
C325        C  0.17516525  0.19486754  0.56192883     0.21100
C326        C  0.15371525  0.21629066  0.58862310    -0.38800
C327        C  0.13053762  0.23797453  0.56440843     0.20100
C328        C  0.12921725  0.23865078  0.51728098     0.22700
C329        C  0.15128477  0.21793194  0.49077699    -0.39300
C330        C  0.17376101  0.19556240  0.51480508     0.21500
N331        N  0.20156575  0.17461087  0.57655203    -0.32600
C332        C  0.21728649  0.16204643  0.53841626    -0.10100
C333        C  0.20022392  0.17458911  0.49926579    -0.28900
N334        N  0.10814366  0.26429605  0.50236374    -0.45500
C335        C  0.09614207  0.28078924  0.54010803    -0.04800
C336        C  0.10948915  0.26457110  0.57959755    -0.22200
H337        H  0.15599397  0.21715151  0.62546085     0.19600
H338        H  0.15250138  0.22080844  0.45429359     0.18400
H339        H  0.20833216  0.17140224  0.46426702     0.14700
H340        H  0.10713808  0.27307249  0.61462094     0.14600
H341        H  0.20968339  0.17193892  0.61045848     0.32700
H342        H  0.10478022  0.27232895  0.46854883     0.35500
C343        C  0.30452367  0.21639705  0.50613378     0.21100
C344        C  0.31114081  0.25169625  0.50459914    -0.38800
C345        C  0.34581264  0.26045119  0.50461239     0.20100
C346        C  0.37227899  0.23610068  0.50588867     0.22700
C347        C  0.36565681  0.20041207  0.50717782    -0.39300
C348        C  0.33059161  0.19155371  0.50719594     0.21500
N349        N  0.27380581  0.20239281  0.51338176    -0.32600
C350        C  0.27970151  0.16799988  0.51991305    -0.10100
C351        C  0.31507977  0.16025892  0.51503991    -0.28900
N352        N  0.40269875  0.25162910  0.51252273    -0.45500
C353        C  0.39534394  0.28610165  0.51664666    -0.04800
C354        C  0.35987870  0.29217598  0.51083395    -0.22200
H355        H  0.29068646  0.27107465  0.50635567     0.19600
H356        H  0.38611767  0.18118245  0.51098939     0.18400
H357        H  0.32812566  0.13573688  0.52152743     0.14700
H358        H  0.34527943  0.31596519  0.51559683     0.14600
H359        H  0.25092973  0.21656989  0.51776483     0.32700
H360        H  0.42642524  0.23915113  0.51844717     0.35500
C361        C  0.24793383  0.01625948  0.73649284     0.21100
C362        C  0.26456918  0.02689910  0.69645613    -0.38800
C363        C  0.24865666  0.01745426  0.65513934     0.20100
C364        C  0.21940537  0.49754717  0.65402261     0.22700
C365        C  0.20311247  0.48666410  0.69383198    -0.39300
C366        C  0.21835328  0.49694070  0.73485971     0.21500
N367        N  0.25992427  0.01814937  0.77961073    -0.32600
C368        C  0.23852687  0.99880315  0.80551117    -0.10100
C369        C  0.21182670  0.48587476  0.77836096    -0.28900
N370        N  0.21293018  0.48629907  0.61166328    -0.45500
C371        C  0.23829568  0.99893625  0.58500203    -0.04800
C372        C  0.26024031  0.01983070  0.61085937    -0.22200
H373        H  0.28886626  0.04024444  0.69738652     0.19600
H374        H  0.18144818  0.46940106  0.69293376     0.18400
H375        H  0.19271082  0.46709934  0.78737777     0.14700
H376        H  0.28409005  0.03117314  0.59975805     0.14600
H377        H  0.28327179  0.02878263  0.79001162     0.32700
H378        H  0.19444315  0.46806932  0.60325367     0.35500
C379        C  0.45239219  0.31271532  0.65059801     0.21100
C380        C  0.46329627  0.32944444  0.69065738    -0.38800
C381        C  0.45405394  0.31358607  0.73197384     0.20100
C382        C  0.43440387  0.28413036  0.73299246     0.22700
C383        C  0.42309112  0.26786789  0.69320914    -0.39300
C384        C  0.43284362  0.28322680  0.65224901     0.21500
N385        N  0.45385448  0.32475177  0.60752411    -0.32600
C386        C  0.43364691  0.30369351  0.58201506    -0.10100
C387        C  0.42097999  0.27694573  0.60901681    -0.28900
N388        N  0.42357748  0.27754825  0.77534364    -0.45500
C389        C  0.43634073  0.30291712  0.80230695    -0.04800
C390        C  0.45639707  0.32537073  0.77630441    -0.22200
H391        H  0.47658438  0.35382320  0.68975834     0.19600
H392        H  0.40579321  0.24620952  0.69412334     0.18400
H393        H  0.40225660  0.25769535  0.60000691     0.14700
H394        H  0.46733352  0.34953019  0.78742659     0.14600
H395        H  0.46479125  0.34792451  0.59700011     0.32700
H396        H  0.40511194  0.25926420  0.78330576     0.35500
C397        C  0.37735965  0.39591631  0.85354696     0.21100
C398        C  0.36608013  0.42740318  0.87281628    -0.38800
C399        C  0.33452994  0.44089579  0.85604797     0.20100
C400        C  0.31663925  0.42499564  0.82125941     0.22700
C401        C  0.32843347  0.39425274  0.80092477    -0.39300
C402        C  0.35925852  0.38028225  0.81871998     0.21500
N403        N  0.40322964  0.37507281  0.86863778    -0.32600
C404        C  0.40155589  0.34561273  0.84327757    -0.10100
C405        C  0.37462189  0.34860200  0.81123423    -0.28900
N406        N  0.28575631  0.44033297  0.81495189    -0.45500
C407        C  0.28297891  0.46600569  0.84647109    -0.04800
C408        C  0.31351961  0.46728833  0.87252916    -0.22200
H409        H  0.37951936  0.43910921  0.90120621     0.19600
H410        H  0.31342852  0.38089833  0.77535572     0.18400
H411        H  0.36589331  0.32888418  0.78786038     0.14700
H412        H  0.31910431  0.48296592  0.90203363     0.14600
H413        H  0.41893512  0.38048266  0.89658011     0.32700
H414        H  0.26652583  0.43218036  0.79245504     0.35500
C415        C  0.04832099  0.31819951  0.65446717     0.21100
C416        C  0.03721559  0.30182011  0.69453020    -0.38800
C417        C  0.04767601  0.31701256  0.73580989     0.20100
C418        C  0.06870179  0.34548762  0.73688251     0.22700
C419        C  0.08040151  0.36130164  0.69704669    -0.39300
C420        C  0.06932936  0.34665826  0.65602551     0.21500
N421        N  0.04547490  0.30650835  0.61139113    -0.32600
C422        C  0.06611697  0.32670772  0.58559912    -0.10100
C423        C  0.08065773  0.35261079  0.61256562    -0.28900
N424        N  0.08003191  0.35150132  0.77936696    -0.45500
C425        C  0.06629547  0.32664673  0.80621341    -0.04800
C426        C  0.04514570  0.30517450  0.78008421    -0.22200
H427        H  0.02277256  0.27812266  0.69363774     0.19600
H428        H  0.09870418  0.38211187  0.69795966     0.18400
H429        H  0.10027252  0.37081887  0.60331432     0.14700
H430        H  0.03311118  0.28157316  0.79116653     0.14600
H431        H  0.03335068  0.28389387  0.60101864     0.32700
H432        H  0.09920243  0.36903155  0.78768701     0.35500
C433        C  0.17191620  0.43791098  0.88349155     0.21100
C434        C  0.13644881  0.43121015  0.88068647    -0.38800
C435        C  0.12741175  0.39623654  0.88374631     0.20100
C436        C  0.15182366  0.37009038  0.88966076     0.22700
C437        C  0.18711505  0.37685785  0.89324234    -0.39300
C438        C  0.19615684  0.41165742  0.88959198     0.21500
N439        N  0.18743778  0.46784959  0.87379844    -0.32600
C440        C  0.22186408  0.46048379  0.87178938    -0.10100
C441        C  0.22809309  0.42573266  0.88365864    -0.28900
N442        N  0.13767773  0.33894545  0.88415773    -0.45500
C443        C  0.10407813  0.34493686  0.87248278    -0.04800
C444        C  0.09652213  0.38058319  0.87422303    -0.22200
H445        H  0.11757770  0.45139736  0.87297245     0.19600
H446        H  0.20635517  0.35625297  0.89513230     0.18400
H447        H  0.25241166  0.41157946  0.88399866     0.14700
H448        H  0.07263213  0.39348286  0.86421297     0.14600
H449        H  0.17503985  0.49108534  0.86463333     0.32700
H450        H  0.15113630  0.31532901  0.88533803     0.35500
C451        C  0.28192529  0.13108347  0.73749123     0.21100
C452        C  0.29775147  0.14267038  0.69770802    -0.38800
C453        C  0.28237746  0.13261758  0.65666697     0.20100
C454        C  0.25328959  0.11256214  0.65495040     0.22700
C455        C  0.23706843  0.10130376  0.69497852    -0.39300
C456        C  0.25291589  0.11083273  0.73632103     0.21500
N457        N  0.28825319  0.14232960  0.77989395    -0.32600
C458        C  0.26305177  0.12935081  0.80656503    -0.10100
C459        C  0.24115818  0.10855660  0.78050607    -0.28900
N460        N  0.24112210  0.11077986  0.61185485    -0.45500
C461        C  0.26182353  0.13104434  0.58621206    -0.04800
C462        C  0.28828674  0.14440963  0.61338059    -0.22200
H463        H  0.31904024  0.16039518  0.69868730     0.19600
H464        H  0.21296988  0.08761150  0.69405388     0.18400
H465        H  0.21718416  0.09735886  0.79139844     0.14700
H466        H  0.30713767  0.16347848  0.60442573     0.14600
H467        H  0.30612318  0.16121294  0.78811665     0.32700
H468        H  0.21818197  0.09938721  0.60132148     0.35500
C469        C  0.16918297  0.18802232  0.85441404     0.21100
C470        C  0.13742959  0.19913881  0.87261124    -0.38800
C471        C  0.12448435  0.23110304  0.85635675     0.20100
C472        C  0.14108238  0.24956189  0.82293806     0.22700
C473        C  0.17195810  0.23781538  0.80334609    -0.39300
C474        C  0.18537268  0.20654329  0.82064464     0.21500
N475        N  0.18981739  0.16207721  0.86993334    -0.32600
C476        C  0.21963630  0.16413247  0.84582508    -0.10100
C477        C  0.21705346  0.19123388  0.81402367    -0.28900
N478        N  0.12611030  0.28075859  0.81719388    -0.45500
C479        C  0.09999147  0.28313414  0.84780106    -0.04800
C480        C  0.09799224  0.25198221  0.87247792    -0.22200
H481        H  0.12509615  0.18527273  0.89997706     0.19600
H482        H  0.18584186  0.25318665  0.77887468     0.18400
H483        H  0.23713646  0.20031031  0.79173175     0.14700
H484        H  0.08164457  0.24562237  0.90080771     0.14600
H485        H  0.18412761  0.14612730  0.89745399     0.32700
H486        H  0.13460082  0.30034181  0.79558800     0.35500
C487        C  0.33149825  0.19032209  0.88197188     0.21100
C488        C  0.36680032  0.19711251  0.87715629    -0.38800
C489        C  0.37588635  0.23211152  0.87981299     0.20100
C490        C  0.35169499  0.25815718  0.88714791     0.22700
C491        C  0.31667680  0.25129635  0.89292225    -0.39300
C492        C  0.30756363  0.21652298  0.88969378     0.22100
N493        N  0.31552077  0.16052982  0.87257135    -0.32600
C494        C  0.28109272  0.16811651  0.87204784    -0.10100
C495        C  0.27542936  0.20260597  0.88517796    -0.28900
N496        N  0.36548289  0.28937824  0.88104515    -0.45500
C497        C  0.39862372  0.28360192  0.86780487    -0.04800
C498        C  0.40635131  0.24795214  0.86899947    -0.22200
H499        H  0.38533861  0.17702342  0.86822176     0.19600
H500        H  0.29750492  0.27185055  0.89598129     0.18400
H501        H  0.25119315  0.21680156  0.88711114     0.14700
H502        H  0.43002384  0.23522776  0.85827600     0.14600
H503        H  0.32742768  0.13736239  0.86242555     0.32700
H504        H  0.35209537  0.31296570  0.88344182     0.35500
C505        C  0.25357447  0.64339996  0.35350241    -0.01700
C506        C  0.07953769  0.81727304  0.35389531    -0.01700
C507        C  0.42270516  0.81174301  0.34970466    -0.01700
C508        C  0.24856331  0.98583553  0.35306681    -0.01700
C509        C  0.25246746  0.64301906  0.03780392    -0.01700
C510        C  0.07803294  0.81648925  0.03782498    -0.01700
C511        C  0.42114373  0.81292212  0.03392519    -0.01700
C512        C  0.24663767  0.98575457  0.03714186    -0.01700
O513        O  0.46348391  0.84194928  0.48784305    -0.71000
O514        O  0.03437471  0.84333289  0.39953974    -0.71200
O515        O  0.46482002  0.84183548  0.39709401    -0.71100
O516        O  0.03303561  0.84330931  0.49099783    -0.71100
O517        O  0.03590814  0.78723231  0.49055799    -0.71100
O518        O  0.46736296  0.78589591  0.39747400    -0.71100
O519        O  0.03692988  0.78738202  0.39981242    -0.71000
O520        O  0.46627941  0.78586223  0.48886788    -0.71200
V521        V  0.49906139  0.84153557  0.44388760     1.35200
V522        V  0.00148288  0.78767000  0.44416333     1.35200
C523        C  0.45192198  0.81362958  0.50237600     0.78200
C524        C  0.04880545  0.81565740  0.38582497     0.78300
C525        C  0.45318864  0.81354263  0.38271488     0.78100
C526        C  0.04717533  0.81556736  0.50553707     0.78100
O527        O  0.27779124  0.52933399  0.39908038    -0.71000
O528        O  0.27862092  0.59647053  0.49380437    -0.71200
O529        O  0.27673772  0.52676695  0.48971492    -0.71100
O530        O  0.27932091  0.59933396  0.40239581    -0.71100
O531        O  0.22356855  0.60021491  0.39843746    -0.71100
O532        O  0.22097165  0.53182682  0.49146166    -0.71100
O533        O  0.22294885  0.60161705  0.48931452    -0.71000
O534        O  0.22199138  0.53028669  0.40006870    -0.71200
V535        V  0.27706711  0.56312969  0.44619920     1.35200
V536        V  0.22341680  0.56585038  0.44483335     1.35200
C537        C  0.24975767  0.51672794  0.38532813     0.78200
C538        C  0.25114841  0.61187205  0.50609543     0.78300
C539        C  0.24825619  0.51638470  0.50487178     0.78100
C540        C  0.25181764  0.61293125  0.38632768     0.78100
C541        C  0.36979329  0.89020979  0.05811726     0.21100
C542        C  0.34813004  0.91100949  0.08513559    -0.38800
C543        C  0.32503007  0.93282885  0.06127996     0.20100
C544        C  0.32310755  0.93342185  0.01419045     0.22700
C545        C  0.34402567  0.91185628  0.98730216    -0.39300
C546        C  0.36803896  0.89092051  0.01097712     0.21500
N547        N  0.39095903  0.86456801  0.07263821    -0.32600
C548        C  0.40296273  0.84854335  0.03445133    -0.10100
C549        C  0.38952325  0.86492646  0.99531699    -0.28900
N550        N  0.29681825  0.95386494  0.99993508    -0.45500
C551        C  0.28144628  0.96633213  0.03818894    -0.04800
C552        C  0.29862156  0.95352605  0.07719802    -0.22200
H553        H  0.34825452  0.90926907  0.12203194     0.19600
H554        H  0.34023622  0.90987765  0.95096697     0.18400
H555        H  0.39180361  0.85602840  0.96049207     0.14700
H556        H  0.29128478  0.95641571  0.11256062     0.14600
H557        H  0.39410912  0.85675169  0.10657058     0.32700
H558        H  0.28811055  0.95708217  0.96628075     0.35500
C559        C  0.12648007  0.89270398  0.00696186     0.21100
C560        C  0.13312601  0.92837340  0.00782790    -0.38800
C561        C  0.16813513  0.93723902  0.00724802     0.20100
C562        C  0.19416847  0.91239310  0.00579919     0.22700
C563        C  0.18752338  0.87704642  0.00430263    -0.39300
C564        C  0.15283933  0.86825851  0.00509997     0.21500
N565        N  0.09628810  0.87733135  0.01498836    -0.32600
C566        C  0.10363510  0.84287738  0.01944029    -0.10100
C567        C  0.13881260  0.83652331  0.01212147    -0.28900
N568        N  0.22495588  0.92642104  0.01295877    -0.45500
C569        C  0.21908102  0.96076907  0.01994775    -0.04800
C570        C  0.18369680  0.96852400  0.01521128    -0.22200
H571        H  0.11276526  0.94758709  0.01212577     0.19600
H572        H  0.20801614  0.85767137  0.00581114     0.18400
H573        H  0.15330314  0.81255882  0.01635109     0.14700
H574        H  0.17077155  0.99303783  0.02177491     0.14600
H575        H  0.07282276  0.88993922  0.02168054     0.32700
H576        H  0.24795667  0.91225960  0.01679214     0.35500
C577        C  0.17517817  0.69488033  0.06190136     0.21100
C578        C  0.15372764  0.71629963  0.08859792    -0.38800
C579        C  0.13055685  0.73798998  0.06438440     0.20100
C580        C  0.12924869  0.73868090  0.01725678     0.22700
C581        C  0.15132262  0.71797193  0.99075107    -0.39300
C582        C  0.17378460  0.69558850  0.01477733     0.21500
N583        N  0.20156670  0.67460983  0.07652548    -0.32600
C584        C  0.21728858  0.66204908  0.03838914    -0.10100
C585        C  0.20023933  0.67460709  0.99923809    -0.28900
N586        N  0.10817194  0.76432378  0.00234414    -0.45500
C587        C  0.09615635  0.78080060  0.04009248    -0.04800
C588        C  0.10949827  0.76457513  0.07957924    -0.22200
H589        H  0.15599622  0.71714774  0.12543726     0.19600
H590        H  0.15255036  0.72086116  0.95427003     0.18400
H591        H  0.20835609  0.67142877  0.96424182     0.14700
H592        H  0.10713688  0.77306435  0.11460645     0.14600
H593        H  0.20967677  0.67192730  0.11043356     0.32700
H594        H  0.10481605  0.77236765  0.96853252     0.35500
C595        C  0.30452366  0.71640002  0.00612124     0.21100
C596        C  0.31114027  0.75169906  0.00457807    -0.38800
C597        C  0.34581217  0.76045381  0.00458649     0.20100
C598        C  0.37227854  0.73610353  0.00586728     0.22700
C599        C  0.36565632  0.70041522  0.00716647    -0.39300
C600        C  0.33059140  0.69155684  0.00718691     0.21500
N601        N  0.27380604  0.70239602  0.01336832    -0.32600
C602        C  0.27970137  0.66800252  0.01989828    -0.10100
C603        C  0.31507964  0.66026186  0.01502914    -0.28900
N604        N  0.40269880  0.75163265  0.01249475    -0.45500
C605        C  0.39534468  0.78610564  0.01661261    -0.04800
C606        C  0.35987865  0.79217897  0.01080027    -0.22200
H607        H  0.29068572  0.77107765  0.00632901     0.19600
H608        H  0.38611721  0.68118599  0.01098076     0.18400
H609        H  0.32812494  0.63573928  0.02151491     0.14700
H610        H  0.34527794  0.81596719  0.01556327     0.14600
H611        H  0.25093069  0.71657454  0.01774959     0.32700
H612        H  0.42642515  0.73915514  0.01842155     0.35500
C613        C  0.24795488  0.51627942  0.23644226     0.21100
C614        C  0.26459856  0.52690923  0.19640632    -0.38800
C615        C  0.24867642  0.51748181  0.15508787     0.20100
C616        C  0.21941927  0.99762638  0.15402895     0.22700
C617        C  0.20310227  0.98677231  0.19383417    -0.39300
C618        C  0.21836346  0.99701030  0.23486577     0.21500
N619        N  0.25994556  0.51815552  0.27956219    -0.32600
C620        C  0.23852904  0.49882728  0.30545943    -0.10100
C621        C  0.21181435  0.98594799  0.27836261    -0.28900
N622        N  0.21293093  0.98638577  0.11166951    -0.45500
C623        C  0.23830912  0.49896213  0.08495354    -0.04800
C624        C  0.26026324  0.51984837  0.11080864    -0.22200
H625        H  0.28890699  0.54023415  0.19733795     0.19600
H626        H  0.18140426  0.96955180  0.19292979     0.18400
H627        H  0.19266080  0.96720880  0.28736772     0.14700
H628        H  0.28412206  0.53117282  0.09970868     0.14600
H629        H  0.28330207  0.52876793  0.28996646     0.32700
H630        H  0.19440926  0.96819223  0.10325712     0.35500
C631        C  0.45240684  0.81270617  0.15056284     0.21100
C632        C  0.46331442  0.82943234  0.19062327    -0.38800
C633        C  0.45407229  0.81357310  0.23193984     0.20100
C634        C  0.43442694  0.78411415  0.23295572     0.22700
C635        C  0.42311362  0.76785311  0.19317179    -0.39300
C636        C  0.43285732  0.78321829  0.15221279     0.21500
N637        N  0.45385981  0.82474927  0.10749158    -0.32600
C638        C  0.43364283  0.80369812  0.08198559    -0.10100
C639        C  0.42097953  0.77694732  0.10898460    -0.28900
N640        N  0.42359349  0.77753398  0.27530348    -0.45500
C641        C  0.43634603  0.80290662  0.30226984    -0.04800
C642        C  0.45640272  0.82536279  0.27627085    -0.22200
H643        H  0.47659883  0.85381317  0.18972497     0.19600
H644        H  0.40581521  0.74619510  0.19408576     0.18400
H645        H  0.40225258  0.75769983  0.09997677     0.14700
H646        H  0.46733157  0.84952558  0.28739374     0.14600
H647        H  0.46479849  0.84792130  0.09696839     0.32700
H648        H  0.40512592  0.75925015  0.28325659     0.35500
C649        C  0.37732422  0.89588002  0.35351843     0.21100
C650        C  0.36605484  0.92737307  0.37277805    -0.38800
C651        C  0.33449186  0.94085460  0.35604140     0.20100
C652        C  0.31657561  0.92493607  0.32129181     0.22700
C653        C  0.32835574  0.89418204  0.30096878    -0.39300
C654        C  0.35920004  0.88022607  0.31872885     0.21500
N655        N  0.40321619  0.87505461  0.36858372    -0.32600
C656        C  0.40153751  0.84558518  0.34324361    -0.10100
C657        C  0.37457689  0.84855189  0.31123436    -0.28900
N658        N  0.28569589  0.94028312  0.31499599    -0.45500
C659        C  0.28294633  0.96597759  0.34648967    -0.04800
C660        C  0.31350221  0.96726639  0.37251381    -0.22200
H661        H  0.37951844  0.93909807  0.40113348     0.19600
H662        H  0.31333448  0.88081600  0.27542756     0.18400
H663        H  0.36584054  0.82882213  0.28788341     0.14700
H664        H  0.31911535  0.98296638  0.40198722     0.14600
H665        H  0.41894003  0.88048482  0.39649973     0.32700
H666        H  0.26645121  0.93212906  0.29252133     0.35500
C667        C  0.04833380  0.81818317  0.15445679     0.21100
C668        C  0.03723192  0.80179571  0.19451572    -0.38800
C669        C  0.04768370  0.81698910  0.23579821     0.20100
C670        C  0.06869908  0.84547174  0.23687632     0.22700
C671        C  0.08039646  0.86129313  0.19704481    -0.39300
C672        C  0.06933215  0.84664933  0.15602098     0.21500
N673        N  0.04549028  0.80649771  0.11137841    -0.32600
C674        C  0.06612534  0.82670784  0.08559138    -0.10100
C675        C  0.08065748  0.85261260  0.11256242    -0.28900
N676        N  0.08002166  0.85148848  0.27936247    -0.45500
C677        C  0.06628886  0.82662995  0.30620605    -0.04800
C678        C  0.04515101  0.80514972  0.28007162    -0.22200
H679        H  0.02279583  0.77809402  0.19361813     0.19600
H680        H  0.09869036  0.88211105  0.19796306     0.18400
H681        H  0.10026416  0.87083021  0.10331344     0.14700
H682        H  0.03312227  0.78154457  0.29115118     0.14600
H683        H  0.03337338  0.78388047  0.10100068     0.32700
H684        H  0.09918658  0.86902436  0.28768389     0.35500
C685        C  0.17187521  0.93792278  0.38345474     0.21100
C686        C  0.13640921  0.93121807  0.38063023    -0.38800
C687        C  0.12737394  0.89624469  0.38371734     0.20100
C688        C  0.15178606  0.87010318  0.38966883     0.22700
C689        C  0.18707445  0.87687468  0.39326618    -0.39300
C690        C  0.19611370  0.91167264  0.38959444     0.21500
N691        N  0.18740122  0.96785947  0.37375908    -0.32600
C692        C  0.22182850  0.96049150  0.37178205    -0.10100
C693        C  0.22805100  0.92574560  0.38368351    -0.28900
N694        N  0.13764605  0.83895398  0.38418649    -0.45500
C695        C  0.10405105  0.84493676  0.37248428    -0.04800
C696        C  0.09648906  0.88058311  0.37419396    -0.22200
H697        H  0.11753928  0.95140005  0.37288706     0.19600
H698        H  0.20631571  0.85627234  0.39518869     0.18400
H699        H  0.25236961  0.91159268  0.38406772     0.14700
H700        H  0.07260085  0.89347502  0.36415889     0.14600
H701        H  0.17500874  0.99109530  0.36458126     0.32700
H702        H  0.15110634  0.81533920  0.38539721     0.35500
C703        C  0.28190727  0.63106956  0.23746219     0.21100
C704        C  0.29773353  0.64265813  0.19768159    -0.38800
C705        C  0.28236078  0.63260738  0.15664095     0.20100
C706        C  0.25327222  0.61255341  0.15492056     0.22700
C707        C  0.23704899  0.60129396  0.19494807    -0.39300
C708        C  0.25289712  0.61082016  0.23629247     0.21500
N709        N  0.28823787  0.64231393  0.27986328    -0.32600
C710        C  0.26303966  0.62933422  0.30653845    -0.10100
C711        C  0.24114248  0.60854230  0.28048031    -0.28900
N712        N  0.24110898  0.61077257  0.11182234    -0.45500
C713        C  0.26181489  0.63103700  0.08618454    -0.04800
C714        C  0.28827514  0.64440025  0.11335796    -0.22200
H715        H  0.31902301  0.66038206  0.19866278     0.19600
H716        H  0.21295054  0.58760159  0.19402172     0.18400
H717        H  0.21716942  0.59734426  0.29137564     0.14700
H718        H  0.30712736  0.66346933  0.10440897     0.14600
H719        H  0.30610682  0.66119974  0.28807928     0.32700
H720        H  0.21816922  0.59938159  0.10128412     0.35500
C721        C  0.16917714  0.68800963  0.35437170     0.21100
C722        C  0.13741293  0.69911449  0.37255028    -0.38800
C723        C  0.12447860  0.73109187  0.35632397     0.20100
C724        C  0.14109833  0.74957378  0.32294742     0.22700
C725        C  0.17198406  0.73783904  0.30337103    -0.39300
C726        C  0.18538622  0.70655308  0.32064119     0.21500
N727        N  0.18980366  0.66205475  0.36988144    -0.32600
C728        C  0.21963712  0.66412664  0.34580602    -0.10100
C729        C  0.21706962  0.69124644  0.31403069    -0.28900
N730        N  0.12613010  0.78077421  0.31722396    -0.45500
C731        C  0.09999152  0.78313054  0.34780378    -0.04800
C732        C  0.09797516  0.75196078  0.37243973    -0.22200
H733        H  0.12506270  0.68522883  0.39988494     0.19600
H734        H  0.18588294  0.75322720  0.27893379     0.18400
H735        H  0.23716399  0.70033597  0.29176638     0.14700
H736        H  0.08160509  0.74557876  0.40073751     0.14600
H737        H  0.18409573  0.64608721  0.39737694     0.32700
H738        H  0.13463218  0.80037034  0.29564697     0.35500
C739        C  0.33151196  0.69029178  0.38189916     0.21100
C740        C  0.36681185  0.69708244  0.37705676    -0.38800
C741        C  0.37590121  0.73207919  0.37974086     0.20100
C742        C  0.35171447  0.75812164  0.38711994     0.22700
C743        C  0.31669901  0.75126058  0.39291319    -0.39300
C744        C  0.30758268  0.71649020  0.38966123     0.22100
N745        N  0.31552800  0.66050264  0.37250282    -0.32600
C746        C  0.28110003  0.66809150  0.37201631    -0.10100
C747        C  0.27544556  0.70257650  0.38517014    -0.28900
N748        N  0.36550063  0.78934494  0.38103951    -0.45500
C749        C  0.39863382  0.78357453  0.36776484    -0.04800
C750        C  0.40636278  0.74792457  0.36892459    -0.22200
H751        H  0.38534473  0.67699692  0.36808979     0.19600
H752        H  0.29753021  0.77181428  0.39600816     0.18400
H753        H  0.25121084  0.71677149  0.38713864     0.14700
H754        H  0.43003150  0.73520601  0.35817512     0.14600
H755        H  0.32742801  0.63733651  0.36233778     0.32700
H756        H  0.35211594  0.81293155  0.38347549     0.35500
C757        C  0.25358230  0.64342445  0.85351696    -0.01700
C758        C  0.07954952  0.81727401  0.85386947    -0.01700
C759        C  0.42272334  0.81173924  0.84972696    -0.01700
C760        C  0.24858987  0.98581735  0.85309302    -0.01700
C761        C  0.25246276  0.64301787  0.53781087    -0.01700
C762        C  0.07802341  0.81648631  0.53781070    -0.01700
C763        C  0.42113396  0.81291210  0.53394665    -0.01700
C764        C  0.24664352  0.98574164  0.53716096    -0.01700
O765        O  0.46349534  0.84195216  0.98782232    -0.71000
O766        O  0.03440693  0.84333414  0.89955058    -0.71200
O767        O  0.46485458  0.84183228  0.89708166    -0.71100
O768        O  0.03304555  0.84330902  0.99101189    -0.71100
O769        O  0.03593290  0.78723267  0.99055520    -0.71100
O770        O  0.46738038  0.78589201  0.89748882    -0.71100
O771        O  0.03694672  0.78738316  0.89980330    -0.71000
O772        O  0.46630429  0.78586567  0.98887614    -0.71200
V773        V  0.49908435  0.84153558  0.94388624     1.35200
V774        V  0.00150530  0.78767011  0.94416576     1.35200
C775        C  0.45193601  0.81363421  0.00236279     0.78200
C776        C  0.04882658  0.81565844  0.88581866     0.78300
C777        C  0.45321188  0.81353854  0.88272295     0.78100
C778        C  0.04718917  0.81556781  0.00554704     0.78100
O779        O  0.27779340  0.52936124  0.89905305    -0.71000
O780        O  0.27862414  0.59647508  0.99379856    -0.71200
O781        O  0.27674900  0.52677674  0.98968088    -0.71100
O782        O  0.27932138  0.59935756  0.90239988    -0.71100
O783        O  0.22356947  0.60022098  0.89841759    -0.71100
O784        O  0.22098440  0.53184686  0.99146481    -0.71100
O785        O  0.22295341  0.60163537  0.98929026    -0.71000
O786        O  0.22199371  0.53028983  0.90007563    -0.71200
V787        V  0.27707119  0.56314569  0.94618284     1.35200
V788        V  0.22342078  0.56586232  0.94482363     1.35200
C789        C  0.24976020  0.51674010  0.88532476     0.78200
C790        C  0.25115255  0.61188230  0.00607966     0.78300
C791        C  0.24827215  0.51640106  0.00485755     0.78100
C792        C  0.25181864  0.61294974  0.88632748     0.78100
C793        C  0.36979327  0.89020208  0.55815894     0.21100
C794        C  0.34813455  0.91100711  0.58517733    -0.38800
C795        C  0.32504451  0.93283647  0.56131946     0.20100
C796        C  0.32312785  0.93343220  0.51422915     0.22700
C797        C  0.34404442  0.91186584  0.48734278    -0.39300
C798        C  0.36804646  0.89092078  0.51101875     0.21500
N799        N  0.39094771  0.86455020  0.57267615    -0.32600
C800        C  0.40295336  0.84853159  0.53448506    -0.10100
C801        C  0.38952364  0.86492432  0.49535416    -0.28900
N802        N  0.29683833  0.95387150  0.49996853    -0.45500
C803        C  0.28145786  0.96633239  0.53821833    -0.04800
C804        C  0.29863303  0.95353283  0.57723213    -0.22200
H805        H  0.34825220  0.90926106  0.62207327     0.19600
H806        H  0.34025908  0.90989099  0.45100678     0.18400
H807        H  0.39180989  0.85603561  0.46052552     0.14700
H808        H  0.29129109  0.95642175  0.61259303     0.14600
H809        H  0.39409052  0.85672641  0.60660677     0.32700
H810        H  0.28813337  0.95708589  0.46631254     0.35500
C811        C  0.12648844  0.89269588  0.50697318     0.21100
C812        C  0.13313910  0.92836361  0.50785232    -0.38800
C813        C  0.16814862  0.93722551  0.50726773     0.20100
C814        C  0.19418100  0.91237880  0.50580791     0.22700
C815        C  0.18753121  0.87703196  0.50430807    -0.39300
C816        C  0.15284448  0.86824728  0.50510487     0.21500
N817        N  0.09629216  0.87732646  0.51498387    -0.32600
C818        C  0.10363141  0.84287006  0.51942318    -0.10100
C819        C  0.13880967  0.83651198  0.51210840    -0.28900
N820        N  0.22497137  0.92640697  0.51295638    -0.45500
C821        C  0.21909561  0.96075450  0.51995057    -0.04800
C822        C  0.18371091  0.96850874  0.51523007    -0.22200
H823        H  0.11278088  0.94757917  0.51215638     0.19600
H824        H  0.20802194  0.85765444  0.50580630     0.18400
H825        H  0.15329494  0.81254362  0.51632981     0.14700
H826        H  0.17078638  0.99302067  0.52180793     0.14600
H827        H  0.07282827  0.88993702  0.52167687     0.32700
H828        H  0.24797443  0.91224807  0.51678162     0.35500
C829        C  0.17514486  0.69485251  0.56189974     0.21100
C830        C  0.15368279  0.71626458  0.58859397    -0.38800
C831        C  0.13051812  0.73796228  0.56437772     0.20100
C832        C  0.12922325  0.73866245  0.51724988     0.22700
C833        C  0.15130498  0.71795792  0.49074833    -0.39300
C834        C  0.17376333  0.69557078  0.51477573     0.21500
N835        N  0.20153938  0.67458883  0.57652680    -0.32600
C836        C  0.21727852  0.66204452  0.53839229    -0.10100
C837        C  0.20023073  0.67460242  0.49923973    -0.28900
N838        N  0.10815874  0.76431542  0.50233515    -0.45500
C839        C  0.09613928  0.78079227  0.54008127    -0.04800
C840        C  0.10946275  0.76455349  0.57956993    -0.22200
H841        H  0.15594346  0.71710736  0.62543430     0.19600
H842        H  0.15254738  0.72085994  0.45427048     0.18400
H843        H  0.20835566  0.67143345  0.46424513     0.14700
H844        H  0.10709350  0.77303827  0.61459807     0.14600
H845        H  0.20964129  0.67190112  0.61043757     0.32700
H846        H  0.10481583  0.77236707  0.46852490     0.35500
C847        C  0.30451840  0.71639103  0.50610081     0.21100
C848        C  0.31113549  0.75168992  0.50456645    -0.38800
C849        C  0.34580698  0.76044493  0.50458808     0.20100
C850        C  0.37227352  0.73609481  0.50586927     0.22700
C851        C  0.36565150  0.70040620  0.50715995    -0.39300
C852        C  0.33058627  0.69154774  0.50717177     0.21500
N853        N  0.27380008  0.70238833  0.51334831    -0.32600
C854        C  0.27969484  0.66799632  0.51988791    -0.10100
C855        C  0.31507364  0.66025432  0.51502183    -0.28900
N856        N  0.40269227  0.75162385  0.51250875    -0.45500
C857        C  0.39533623  0.78609616  0.51663239    -0.04800
C858        C  0.35987127  0.79216956  0.51081545    -0.22200
H859        H  0.29068077  0.77106820  0.50631849     0.19600
H860        H  0.38611202  0.68117701  0.51097896     0.18400
H861        H  0.32811899  0.63573360  0.52152032     0.14700
H862        H  0.34527017  0.81595741  0.51558016     0.14600
H863        H  0.25092541  0.71656756  0.51773082     0.32700
H864        H  0.42641852  0.73914650  0.51843720     0.35500
C865        C  0.24792604  0.51627961  0.73645104     0.21100
C866        C  0.26456605  0.52690429  0.69641083    -0.38800
C867        C  0.24864585  0.51746534  0.65509678     0.20100
C868        C  0.21943030  0.99751571  0.65406091     0.22700
C869        C  0.20314375  0.98661631  0.69386598    -0.39300
C870        C  0.21837412  0.99690099  0.73489557     0.21500
N871        N  0.25992312  0.51816231  0.77956664    -0.32600
C872        C  0.23851845  0.49882813  0.80547224    -0.10100
C873        C  0.21184780  0.98583184  0.77839451    -0.28900
N874        N  0.21296061  0.98627150  0.61169966    -0.45500
C875        C  0.23827609  0.49894119  0.58496408    -0.04800
C876        C  0.26023352  0.51982483  0.61081753    -0.22200
H877        H  0.28887291  0.54023221  0.69733685     0.19600
H878        H  0.18149076  0.96933923  0.69296294     0.18400
H879        H  0.19274273  0.96704419  0.78740782     0.14700
H880        H  0.28409222  0.53114811  0.59971514     0.14600
H881        H  0.28327910  0.52878064  0.78996170     0.32700
H882        H  0.19448506  0.96803077  0.60328652     0.35500
C883        C  0.45237664  0.81270717  0.65058589     0.21100
C884        C  0.46328520  0.82943439  0.69064305    -0.38800
C885        C  0.45405311  0.81357077  0.73195870     0.20100
C886        C  0.43440504  0.78411373  0.73297895     0.22700
C887        C  0.42308138  0.76785677  0.69319740    -0.39300
C888        C  0.43282586  0.78322020  0.65223739     0.21500
N889        N  0.45384250  0.82474194  0.60751275    -0.32600
C890        C  0.43363260  0.80368612  0.58200468    -0.10100
C891        C  0.42096040  0.77694067  0.60900606    -0.28900
N892        N  0.42358866  0.77752685  0.77533232    -0.45500
C893        C  0.43635509  0.80289514  0.80229402    -0.04800
C894        C  0.45640556  0.82535152  0.77628918    -0.22200
H895        H  0.47657299  0.85381332  0.68974334     0.19600
H896        H  0.40578425  0.74619778  0.69411404     0.18400
H897        H  0.40223597  0.75769140  0.59999536     0.14700
H898        H  0.46734143  0.84951150  0.78741040     0.14600
H899        H  0.46478394  0.84791225  0.59698814     0.32700
H900        H  0.40512346  0.75924283  0.78329549     0.35500
C901        C  0.37736769  0.89589008  0.85353071     0.21100
C902        C  0.36609865  0.92738438  0.87279025    -0.38800
C903        C  0.33453622  0.94086780  0.85604994     0.20100
C904        C  0.31662226  0.92494834  0.82129861     0.22700
C905        C  0.32840325  0.89419576  0.80097562    -0.39300
C906        C  0.35924459  0.88023874  0.81873818     0.21500
N907        N  0.40325210  0.87505758  0.86860272    -0.32600
C908        C  0.40156656  0.84558727  0.84326441    -0.10100
C909        C  0.37461206  0.84856070  0.81124920    -0.28900
N910        N  0.28573858  0.94028669  0.81500756    -0.45500
C911        C  0.28298224  0.96597824  0.84650366    -0.04800
C912        C  0.31353920  0.96727438  0.87252597    -0.22200
H913        H  0.37955794  0.93910506  0.90115258     0.19600
H914        H  0.31338150  0.88082852  0.77543602     0.18400
H915        H  0.36587182  0.82883241  0.78789868     0.14700
H916        H  0.31914512  0.98297335  0.90200325     0.14600
H917        H  0.41897448  0.88048344  0.89652260     0.32700
H918        H  0.26649481  0.93212428  0.79253741     0.35500
C919        C  0.04831193  0.81821373  0.65443920     0.21100
C920        C  0.03720234  0.80183486  0.69450059    -0.38800
C921        C  0.04766641  0.81702189  0.73578262     0.20100
C922        C  0.06869996  0.84549088  0.73685815     0.22700
C923        C  0.08040496  0.86130336  0.69702408    -0.39300
C924        C  0.06932915  0.84666571  0.65600129     0.21500
N925        N  0.04546633  0.80652356  0.61136259    -0.32600
C926        C  0.06611907  0.82671523  0.58557561    -0.10100
C927        C  0.08066433  0.85261428  0.61254412    -0.28900
N928        N  0.08003264  0.85149833  0.77934304    -0.45500
C929        C  0.06629000  0.82664637  0.80618840    -0.04800
C930        C  0.04513429  0.80518133  0.78005644    -0.22200
H931        H  0.02275435  0.77814057  0.69360511     0.19600
H932        H  0.09871510  0.88210690  0.69793948     0.18400
H933        H  0.10028645  0.87081563  0.60329698     0.14700
H934        H  0.03309472  0.78158191  0.79113589     0.14600
H935        H  0.03333583  0.78391324  0.60098746     0.32700
H936        H  0.09920939  0.86902164  0.78766341     0.35500
C937        C  0.17192186  0.93789251  0.88350901     0.21100
C938        C  0.13645555  0.93119275  0.88068589    -0.38800
C939        C  0.12741739  0.89621928  0.88373085     0.20100
C940        C  0.15182709  0.87007119  0.88964489     0.22700
C941        C  0.18711804  0.87683689  0.89324311    -0.39300
C942        C  0.19616076  0.91163767  0.88961253     0.21500
N943        N  0.18744531  0.96783270  0.87383085    -0.32600
C944        C  0.22187176  0.96046726  0.87183445    -0.10100
C945        C  0.22809820  0.92571479  0.88370212    -0.28900
N946        N  0.13767932  0.83892791  0.88413441    -0.45500
C947        C  0.10408077  0.84492355  0.87245593    -0.04800
C948        C  0.09652775  0.88056987  0.87419974    -0.22200
H949        H  0.11758635  0.95138178  0.87297232     0.19600
H950        H  0.20635745  0.85623136  0.89513485     0.18400
H951        H  0.25241632  0.91156090  0.88405091     0.14700
H952        H  0.07263894  0.89347235  0.86419100     0.14600
H953        H  0.17504934  0.99106831  0.86466084     0.32700
H954        H  0.15113514  0.81530998  0.88531920     0.35500
C955        C  0.28192502  0.63112035  0.73748069     0.21100
C956        C  0.29773927  0.64272127  0.69769622    -0.38800
C957        C  0.28236991  0.63265739  0.65665665     0.20100
C958        C  0.25329631  0.61258142  0.65494317     0.22700
C959        C  0.23708456  0.60131330  0.69497283    -0.39300
C960        C  0.25292887  0.61085077  0.73631313     0.21500
N961        N  0.28825110  0.64236487  0.77988400    -0.32600
C962        C  0.26306127  0.62936604  0.80655715    -0.10100
C963        C  0.24117696  0.60856259  0.78049917    -0.28900
N964        N  0.24113185  0.61078324  0.61184715    -0.45500
C965        C  0.26182122  0.63105594  0.58619869    -0.04800
C966        C  0.28827262  0.64444622  0.61336711    -0.22200
H967        H  0.31901696  0.66045948  0.69867373     0.19600
H968        H  0.21299552  0.58760454  0.69405096     0.18400
H969        H  0.21721103  0.59734926  0.79139408     0.14700
H970        H  0.30711112  0.66352647  0.60440791     0.14600
H971        H  0.30610892  0.66126003  0.78810678     0.32700
H972        H  0.21820082  0.59937199  0.60131556     0.35500
C973        C  0.16918430  0.68802329  0.85435866     0.21100
C974        C  0.13741764  0.69912512  0.87252844    -0.38800
C975        C  0.12447716  0.73109345  0.85628422     0.20100
C976        C  0.14109200  0.74956997  0.82289759     0.22700
C977        C  0.17198397  0.73783997  0.80333425    -0.39300
C978        C  0.18539336  0.70656349  0.82062448     0.21500
N979        N  0.18981247  0.66207478  0.86988056    -0.32600
C980        C  0.21964729  0.66414830  0.84581055    -0.10100
C981        C  0.21708113  0.69126376  0.81402884    -0.28900
N982        N  0.12611984  0.78076753  0.81716559    -0.45500
C983        C  0.09998873  0.78312765  0.84775621    -0.04800
C984        C  0.09797723  0.75196288  0.87240164    -0.22200
H985        H  0.12506985  0.68524512  0.89987010     0.19600
H986        H  0.18588203  0.75322618  0.77889393     0.18400
H987        H  0.23717658  0.70035273  0.79176588     0.14700
H988        H  0.08162009  0.74558767  0.90071520     0.14600
H989        H  0.18410446  0.64610866  0.89737758     0.32700
H990        H  0.13462108  0.80036268  0.79558635     0.35500
C991        C  0.33151463  0.69030544  0.88195720     0.21100
C992        C  0.36681670  0.69709046  0.87712622    -0.38800
C993        C  0.37590827  0.73208752  0.87978941     0.20100
C994        C  0.35172140  0.75813460  0.88714065     0.22700
C995        C  0.31670425  0.75127938  0.89292413    -0.39300
C996        C  0.30758581  0.71650908  0.88969377     0.22100
N997        N  0.31552940  0.66051776  0.87255896    -0.32600
C998        C  0.28110270  0.66811233  0.87204965    -0.10100
C999        C  0.27544813  0.70259971  0.88519017    -0.28900
N1000       N  0.36551102  0.78935453  0.88104878    -0.45500
C1001       C  0.39864767  0.78357774  0.86779493    -0.04800
C1002       C  0.40637370  0.74792706  0.86897570    -0.22200
H1003       H  0.38534987  0.67699967  0.86817996     0.19600
H1004       H  0.29753638  0.77183626  0.89599465     0.18400
H1005       H  0.25121505  0.71679986  0.88713375     0.14700
H1006       H  0.43004383  0.73520304  0.85824218     0.14600
H1007       H  0.32742943  0.63735001  0.86240029     0.32700
H1008       H  0.35212642  0.81294230  0.88346418     0.35500
C1009       C  0.75358265  0.14340549  0.35354181    -0.01700
C1010       C  0.57953907  0.31726633  0.35388561    -0.01700
C1011       C  0.92272291  0.31174560  0.34970368    -0.01700
C1012       C  0.74857537  0.48582966  0.35304391    -0.01700
C1013       C  0.75247531  0.14301564  0.03783369    -0.01700
C1014       C  0.57803910  0.31648875  0.03782266    -0.01700
C1015       C  0.92113899  0.31293040  0.03392933    -0.01700
C1016       C  0.74665121  0.48575795  0.03711570    -0.01700
O1017       O  0.96349139  0.34195026  0.48784650    -0.71000
O1018       O  0.53438848  0.34332796  0.39955136    -0.71200
O1019       O  0.96483507  0.34183588  0.39709795    -0.71100
O1020       O  0.53303874  0.34330231  0.49101357    -0.71100
O1021       O  0.53591130  0.28722540  0.49057138    -0.71100
O1022       O  0.96737248  0.28589609  0.39748088    -0.71100
O1023       O  0.53693791  0.28737722  0.39982055    -0.71000
O1024       O  0.96628465  0.28586318  0.48887531    -0.71200
V1025       V  0.99907176  0.34153282  0.44389657     1.35200
V1026       V  0.50148970  0.28766719  0.44417186     1.35200
C1027       C  0.95192891  0.31363200  0.50238212     0.78200
C1028       C  0.54881353  0.31565173  0.38582905     0.78300
C1029       C  0.95320256  0.31354385  0.38271841     0.78100
C1030       C  0.54717479  0.31555976  0.50555673     0.78100
O1031       O  0.77778595  0.02933573  0.39910149    -0.71000
O1032       O  0.77862633  0.09647123  0.49382538    -0.71200
O1033       O  0.77674575  0.02676898  0.48973682    -0.71100
O1034       O  0.77932105  0.09933351  0.40242316    -0.71100
O1035       O  0.72356855  0.10021573  0.39846708    -0.71100
O1036       O  0.72098034  0.03182996  0.49150205    -0.71100
O1037       O  0.72295403  0.10161973  0.48933988    -0.71000
O1038       O  0.72198619  0.03028506  0.40010723    -0.71200
V1039       V  0.77706887  0.06313007  0.44622223     1.35200
V1040       V  0.72341847  0.06585113  0.44486628     1.35200
C1041       C  0.74975025  0.01672880  0.38535732     0.78200
C1042       C  0.75115470  0.11187538  0.50611430     0.78300
C1043       C  0.74826781  0.01638878  0.50490598     0.78100
C1044       C  0.75181856  0.11293339  0.38635978     0.78100
C1045       C  0.86983214  0.39025562  0.05809170     0.21100
C1046       C  0.84819729  0.41108738  0.08510756    -0.38800
C1047       C  0.82508429  0.43289109  0.06124847     0.20100
C1048       C  0.82312675  0.43344161  0.01416001     0.22700
C1049       C  0.84401794  0.41184703  0.98727787    -0.39300
C1050       C  0.86804326  0.39092751  0.01095256     0.21500
N1051       N  0.89099237  0.36461223  0.07262153    -0.32600
C1052       C  0.90295710  0.34855048  0.03443988    -0.10100
C1053       C  0.88950197  0.36491135  0.99530080    -0.28900
N1054       N  0.79682150  0.45386292  0.99990672    -0.45500
C1055       C  0.78146745  0.46635116  0.03816002    -0.04800
C1056       C  0.79867968  0.45359302  0.07716829    -0.22200
H1057       H  0.84834549  0.40937556  0.12200631     0.19600
H1058       H  0.84019313  0.40982841  0.95095235     0.18400
H1059       H  0.89175274  0.35598400  0.96048558     0.14700
H1060       H  0.79136688  0.45650842  0.11253595     0.14600
H1061       H  0.89416272  0.35682237  0.10656133     0.32700
H1062       H  0.78808635  0.45704439  0.96625895     0.35500
C1063       C  0.62650148  0.39269940  0.00697458     0.21100
C1064       C  0.63314921  0.42836799  0.00782778    -0.38800
C1065       C  0.66815830  0.43723168  0.00723928     0.20100
C1066       C  0.69419181  0.41238535  0.00579987     0.22700
C1067       C  0.68754509  0.37703825  0.00432183    -0.39300
C1068       C  0.65285974  0.36825257  0.00512311     0.21500
N1069       N  0.59630609  0.37733011  0.01499214    -0.32600
C1070       C  0.60364838  0.34287563  0.01944715    -0.10100
C1071       C  0.63882877  0.33651967  0.01214516    -0.28900
N1072       N  0.72498000  0.42641618  0.01294768    -0.45500
C1073       C  0.71910326  0.46076640  0.01991696    -0.04800
C1074       C  0.68371890  0.46851855  0.01518337    -0.22200
H1075       H  0.61278941  0.44758395  0.01211631     0.19600
H1076       H  0.70803701  0.35766246  0.00583535     0.18400
H1077       H  0.65331832  0.31255551  0.01638267     0.14700
H1078       H  0.67079270  0.49303254  0.02174252     0.14600
H1079       H  0.57283993  0.38994040  0.02167217     0.32700
H1080       H  0.74798105  0.41225694  0.01679359     0.35500
C1081       C  0.67516805  0.19486301  0.06190116     0.21100
C1082       C  0.65369719  0.21626602  0.08859341    -0.38800
C1083       C  0.63054416  0.23797269  0.06437371     0.20100
C1084       C  0.62927322  0.23869505  0.01724557     0.22700
C1085       C  0.65137223  0.21800834  0.99074692    -0.39300
C1086       C  0.67381030  0.19560335  0.01477653     0.21500
N1087       N  0.70154573  0.17458139  0.07653618    -0.32600
C1088       C  0.71729632  0.16204743  0.03840511    -0.10100
C1089       C  0.70027243  0.17462771  0.99924736    -0.28900
N1090       N  0.60820405  0.26434420  0.00233343    -0.45500
C1091       C  0.59616051  0.28079851  0.04008272    -0.04800
C1092       C  0.60947205  0.26454782  0.07956961    -0.22200
H1093       H  0.65593707  0.21708940  0.12543661     0.19600
H1094       H  0.65263755  0.22093115  0.95427341     0.18400
H1095       H  0.70841531  0.17147254  0.96425830     0.14700
H1096       H  0.60708395  0.27301447  0.11460295     0.14600
H1097       H  0.70962980  0.17187494  0.11045172     0.32700
H1098       H  0.60487549  0.27241178  0.96852765     0.35500
C1099       C  0.80453493  0.21638943  0.00612795     0.21100
C1100       C  0.81114853  0.25168820  0.00457516    -0.38800
C1101       C  0.84581876  0.26044614  0.00458835     0.20100
C1102       C  0.87228753  0.23609898  0.00587977     0.22700
C1103       C  0.86566842  0.20040949  0.00718869    -0.39300
C1104       C  0.83060374  0.19154775  0.00720661     0.21500
N1105       N  0.77381800  0.20238709  0.01338004    -0.32600
C1106       C  0.77971229  0.16799508  0.01992321    -0.10100
C1107       C  0.81509166  0.16025382  0.01506166    -0.28900
N1108       N  0.90270490  0.25163358  0.01251018    -0.45500
C1109       C  0.89534546  0.28610663  0.01661919    -0.04800
C1110       C  0.85987939  0.29217370  0.01080116    -0.22200
H1111       H  0.79069205  0.27106523  0.00631814     0.19600
H1112       H  0.88613066  0.18118291  0.01101395     0.18400
H1113       H  0.82813657  0.13573285  0.02155999     0.14700
H1114       H  0.84527397  0.31595941  0.01556117     0.14600
H1115       H  0.75094485  0.21656900  0.01776046     0.32700
H1116       H  0.92643223  0.23916020  0.01844473     0.35500
C1117       C  0.74797445  0.01629094  0.23646537     0.21100
C1118       C  0.76463551  0.02689237  0.19642872    -0.38800
C1119       C  0.74869784  0.01748974  0.15511030     0.20100
C1120       C  0.71943360  0.49756616  0.15400739     0.22700
C1121       C  0.70313730  0.48667983  0.19381067    -0.39300
C1122       C  0.71837742  0.49694768  0.23484100     0.21500
N1123       N  0.75997252  0.01814331  0.27958364    -0.32600
C1124       C  0.73852902  0.99884587  0.30548227    -0.10100
C1125       C  0.71184034  0.48588087  0.27833686    -0.28900
N1126       N  0.71295939  0.48632193  0.11164758    -0.45500
C1127       C  0.73830821  0.99897473  0.08497854    -0.04800
C1128       C  0.76029414  0.01982825  0.11083316    -0.22200
H1129       H  0.78896776  0.04017447  0.19735991     0.19600
H1130       H  0.68146967  0.46942110  0.19290574     0.18400
H1131       H  0.69271805  0.46710898  0.28734151     0.14700
H1132       H  0.78417516  0.03110824  0.09973596     0.14600
H1133       H  0.78334799  0.02871659  0.28998466     0.32700
H1134       H  0.69447003  0.46809521  0.10323529     0.35500
C1135       C  0.95239965  0.31272846  0.15056479     0.21100
C1136       C  0.96331505  0.32945192  0.19062350    -0.38800
C1137       C  0.95408104  0.31358788  0.23194044     0.20100
C1138       C  0.93443437  0.28412970  0.23295648     0.22700
C1139       C  0.92310920  0.26787569  0.19317562    -0.39300
C1140       C  0.93284660  0.28324323  0.15221796     0.21500
N1141       N  0.95385434  0.32476730  0.10749208    -0.32600
C1142       C  0.93363388  0.30371561  0.08199147    -0.10100
C1143       C  0.92096631  0.27697023  0.10899381    -0.28900
N1144       N  0.92361045  0.27754234  0.27530481    -0.45500
C1145       C  0.93636798  0.30291044  0.30227279    -0.04800
C1146       C  0.95642203  0.32536978  0.27627402    -0.22200
H1147       H  0.97660264  0.35383098  0.18972426     0.19600
H1148       H  0.90580971  0.24621860  0.19409203     0.18400
H1149       H  0.90223822  0.25772288  0.09998955     0.14700
H1150       H  0.96735226  0.34953136  0.28739922     0.14600
H1151       H  0.96479854  0.34793529  0.09696359     0.32700
H1152       H  0.90514149  0.25925967  0.28325647     0.35500
C1153       C  0.87734991  0.39588982  0.35348323     0.21100
C1154       C  0.86608278  0.42738867  0.37273034    -0.38800
C1155       C  0.83451560  0.44086449  0.35599775     0.20100
C1156       C  0.81659293  0.42493427  0.32126371     0.22700
C1157       C  0.82837112  0.39417513  0.30095170    -0.39300
C1158       C  0.85921959  0.38022560  0.31870755     0.21500
N1159       N  0.90324184  0.37506637  0.36855513    -0.32600
C1160       C  0.90155529  0.34558752  0.34323490    -0.10100
C1161       C  0.87459242  0.34854751  0.31122824    -0.28900
N1162       N  0.78570877  0.44027437  0.31497622    -0.45500
C1163       C  0.78296167  0.46597619  0.34646033    -0.04800
C1164       C  0.81352528  0.46727761  0.37246775    -0.22200
H1165       H  0.87954990  0.43912105  0.40107734     0.19600
H1166       H  0.81334430  0.38079955  0.27542518     0.18400
H1167       H  0.86585124  0.32881088  0.28789073     0.14700
H1168       H  0.81914354  0.48298563  0.40193182     0.14600
H1169       H  0.91897080  0.38050477  0.39646330     0.32700
H1170       H  0.76645977  0.43210963  0.29251530     0.35500
C1171       C  0.54832551  0.31818499  0.15444887     0.21100
C1172       C  0.53722137  0.30179696  0.19450685    -0.38800
C1173       C  0.54767323  0.31698846  0.23579119     0.20100
C1174       C  0.56868912  0.34547057  0.23687037     0.22700
C1175       C  0.58038791  0.36129253  0.19704060    -0.39300
C1176       C  0.56932551  0.34664978  0.15601610     0.21500
N1177       N  0.54548714  0.30649867  0.11137019    -0.32600
C1178       C  0.56612910  0.32670551  0.08558831    -0.10100
C1179       C  0.58065826  0.35261050  0.11256099    -0.28900
N1180       N  0.58001459  0.35148429  0.27935528    -0.45500
C1181       C  0.56628359  0.32662494  0.30619917    -0.04800
C1182       C  0.54514333  0.30514647  0.28006475    -0.22200
H1183       H  0.52278525  0.27809534  0.19360719     0.19600
H1184       H  0.59868396  0.38210852  0.19796086     0.18400
H1185       H  0.60026764  0.37082651  0.10331655     0.14700
H1186       H  0.53311569  0.28154047  0.29114326     0.14600
H1187       H  0.53336935  0.28388254  0.10099002     0.32700
H1188       H  0.59918210  0.36901804  0.28767325     0.35500
C1189       C  0.67188849  0.43791497  0.38341704     0.21100
C1190       C  0.63642201  0.43121152  0.38059200    -0.38800
C1191       C  0.62738592  0.39623820  0.38367741     0.20100
C1192       C  0.65179821  0.37009597  0.38961999     0.22700
C1193       C  0.68708711  0.37686573  0.39321104    -0.39300
C1194       C  0.69612678  0.41166389  0.38955019     0.21500
N1195       N  0.68741547  0.46785353  0.37373606    -0.32600
C1196       C  0.72184348  0.46048626  0.37176578    -0.10100
C1197       C  0.72806507  0.42573829  0.38365438    -0.28900
N1198       N  0.63765538  0.33894720  0.38415031    -0.45500
C1199       C  0.60405726  0.34493011  0.37246450    -0.04800
C1200       C  0.59649730  0.38057724  0.37417304    -0.22200
H1201       H  0.61755169  0.45139525  0.37285846     0.19600
H1202       H  0.70632787  0.35626281  0.39513049     0.18400
H1203       H  0.75238364  0.41158537  0.38403654     0.14700
H1204       H  0.57260635  0.39346947  0.36415019     0.14600
H1205       H  0.67502372  0.49108965  0.36455771     0.32700
H1206       H  0.65111499  0.31533213  0.38536335     0.35500
C1207       C  0.78192281  0.13108995  0.23750349     0.21100
C1208       C  0.79773829  0.14269239  0.19772182    -0.38800
C1209       C  0.78236949  0.13263394  0.15668104     0.20100
C1210       C  0.75329559  0.11255898  0.15496156     0.22700
C1211       C  0.73708314  0.10128581  0.19499035    -0.39300
C1212       C  0.75292581  0.11082181  0.23633443     0.21500
N1213       N  0.78824705  0.14233741  0.27990493    -0.32600
C1214       C  0.76305651  0.12934271  0.30658003    -0.10100
C1215       C  0.74117154  0.10853830  0.28052207    -0.28900
N1216       N  0.74113259  0.11076893  0.11186297    -0.45500
C1217       C  0.76182465  0.13104540  0.08622176    -0.04800
C1218       C  0.78827419  0.14443018  0.11339646    -0.22200
H1219       H  0.81901577  0.16043077  0.19870274     0.19600
H1220       H  0.71299394  0.08757742  0.19406535     0.18400
H1221       H  0.71720467  0.09732708  0.29141716     0.14700
H1222       H  0.80711355  0.16351166  0.10444509     0.14600
H1223       H  0.80610343  0.16123517  0.28812118     0.32700
H1224       H  0.71820211  0.09935949  0.10132551     0.35500
C1225       C  0.66918207  0.18800951  0.35436617     0.21100
C1226       C  0.63740742  0.19910544  0.37252139    -0.38800
C1227       C  0.62447583  0.23108367  0.35629545     0.20100
C1228       C  0.64110744  0.24957469  0.32293832     0.22700
C1229       C  0.67200626  0.23785047  0.30338700    -0.39300
C1230       C  0.68540549  0.20656359  0.32065831     0.21500
N1231       N  0.68980410  0.16205342  0.36988265    -0.32600
C1232       C  0.71964937  0.16413572  0.34583497    -0.10100
C1233       C  0.71709429  0.19126312  0.31406973    -0.28900
N1234       N  0.62613806  0.28077481  0.31721663    -0.45500
C1235       C  0.59999144  0.28312395  0.34778553    -0.04800
C1236       C  0.59796663  0.25194743  0.37240457    -0.22200
H1237       H  0.62504660  0.18521283  0.39984114     0.19600
H1238       H  0.68591562  0.25324693  0.27896964     0.18400
H1239       H  0.73719801  0.20035970  0.29182551     0.14700
H1240       H  0.58159004  0.24555766  0.40069231     0.14600
H1241       H  0.68408329  0.14607650  0.39736359     0.32700
H1242       H  0.63464741  0.30037718  0.29565484     0.35500
C1243       C  0.83152560  0.19029189  0.38192741     0.21100
C1244       C  0.86682473  0.19708164  0.37706568    -0.38800
C1245       C  0.87591554  0.23207919  0.37973528     0.20100
C1246       C  0.85173064  0.25812286  0.38711602     0.22700
C1247       C  0.81671656  0.25126317  0.39292578    -0.39300
C1248       C  0.80759872  0.21649221  0.38969102     0.22100
N1249       N  0.81553813  0.16050180  0.37254558    -0.32600
C1250       C  0.78111013  0.16809230  0.37206629    -0.10100
C1251       C  0.77545987  0.20257878  0.38521622    -0.28900
N1252       N  0.86551723  0.28934572  0.38103252    -0.45500
C1253       C  0.89865009  0.28357501  0.36775772    -0.04800
C1254       C  0.90637744  0.24792392  0.36891548    -0.22200
H1255       H  0.88535543  0.17699396  0.36809912     0.19600
H1256       H  0.79754902  0.27181781  0.39602303     0.18400
H1257       H  0.75122635  0.21677580  0.38718540     0.14700
H1258       H  0.93004636  0.23520454  0.35816812     0.14600
H1259       H  0.82743519  0.13733499  0.36237743     0.32700
H1260       H  0.85213424  0.31293289  0.38347288     0.35500
C1261       C  0.75357789  0.14341601  0.85352544    -0.01700
C1262       C  0.57955135  0.31728252  0.85389763    -0.01700
C1263       C  0.92270573  0.31176087  0.84974100    -0.01700
C1264       C  0.74858140  0.48583689  0.85305336    -0.01700
C1265       C  0.75246967  0.14301892  0.53782923    -0.01700
C1266       C  0.57802103  0.31648074  0.53783174    -0.01700
C1267       C  0.92114336  0.31291793  0.53395639    -0.01700
C1268       C  0.74662075  0.48573776  0.53712509    -0.01700
O1269       O  0.96349446  0.34196137  0.98783729    -0.71000
O1270       O  0.53440080  0.34334446  0.89956080    -0.71200
O1271       O  0.96484333  0.34184868  0.89709785    -0.71100
O1272       O  0.53304782  0.34331458  0.99101732    -0.71100
O1273       O  0.53593204  0.28723815  0.99055349    -0.71100
O1274       O  0.96736572  0.28590811  0.89749885    -0.71100
O1275       O  0.53693614  0.28739291  0.89980657    -0.71000
O1276       O  0.96630054  0.28587460  0.98888487    -0.71200
V1277       V  0.99907991  0.34154599  0.94389775     1.35200
V1278       V  0.50149753  0.28768029  0.94417047     1.35200
C1279       C  0.95193341  0.31364283  0.00237315     0.78200
C1280       C  0.54882204  0.31566847  0.88583313     0.78300
C1281       C  0.95319624  0.31355633  0.88273848     0.78100
C1282       C  0.54719341  0.31557179  0.00554475     0.78100
O1283       O  0.77780089  0.02934811  0.89908577    -0.71000
O1284       O  0.77862944  0.09647072  0.99382340    -0.71200
O1285       O  0.77674780  0.02677112  0.98971197    -0.71100
O1286       O  0.77932571  0.09935148  0.90241797    -0.71100
O1287       O  0.72357368  0.10021595  0.89843969    -0.71100
O1288       O  0.72098294  0.03184220  0.99148320    -0.71100
O1289       O  0.72295881  0.10163090  0.98931664    -0.71000
O1290       O  0.72200097  0.03028321  0.90009689    -0.71200
V1291       V  0.77707531  0.06313915  0.94620882     1.35200
V1292       V  0.72342503  0.06585759  0.94484552     1.35200
C1293       C  0.74976833  0.01672670  0.88535644     0.78200
C1294       C  0.75115843  0.11187644  0.00610925     0.78300
C1295       C  0.74826801  0.01639521  0.00488092     0.78100
C1296       C  0.75182182  0.11294367  0.88634493     0.78100
C1297       C  0.86975737  0.39017616  0.55816332     0.21100
C1298       C  0.84806992  0.41095590  0.58517478    -0.38800
C1299       C  0.82498986  0.43279173  0.56131079     0.20100
C1300       C  0.82310715  0.43341684  0.51421919     0.22700
C1301       C  0.84405178  0.41187341  0.48733607    -0.39300
C1302       C  0.86804297  0.39091955  0.51102185     0.21500
N1303       N  0.89091858  0.36453051  0.57268349    -0.32600
C1304       C  0.90296051  0.34853709  0.53449466    -0.10100
C1305       C  0.88954467  0.36494017  0.49536110    -0.28900
N1306       N  0.79683044  0.45387061  0.49994816    -0.45500
C1307       C  0.78142918  0.46631606  0.53819323    -0.04800
C1308       C  0.79857152  0.45348362  0.57721308    -0.22200
H1309       H  0.84816479  0.40919159  0.62206909     0.19600
H1310       H  0.84030177  0.40992803  0.45099094     0.18400
H1311       H  0.89185852  0.35606946  0.46052765     0.14700
H1312       H  0.79120698  0.45635638  0.61256804     0.14600
H1313       H  0.89404401  0.35669080  0.60661047     0.32700
H1314       H  0.78815212  0.45711117  0.46628449     0.35500
C1315       C  0.62646060  0.39269849  0.50695614     0.21100
C1316       C  0.63310782  0.42836740  0.50783536    -0.38800
C1317       C  0.66811635  0.43723313  0.50722800     0.20100
C1318       C  0.69414939  0.41238818  0.50574144     0.22700
C1319       C  0.68750215  0.37704123  0.50423408    -0.39300
C1320       C  0.65281776  0.36825252  0.50505948     0.21500
N1321       N  0.59627233  0.37732487  0.51500219    -0.32600
C1322       C  0.60361931  0.34286937  0.51943584    -0.10100
C1323       C  0.63879205  0.33651482  0.51208012    -0.28900
N1324       N  0.72494054  0.42641473  0.51288621    -0.45500
C1325       C  0.71906628  0.46075867  0.51990968    -0.04800
C1326       C  0.68368048  0.46851469  0.51520283    -0.22200
H1327       H  0.61274993  0.44757981  0.51216501     0.19600
H1328       H  0.70799525  0.35766562  0.50571481     0.18400
H1329       H  0.65328144  0.31254706  0.51628267     0.14700
H1330       H  0.67075760  0.49302430  0.52180122     0.14600
H1331       H  0.57281091  0.38993221  0.52171951     0.32700
H1332       H  0.74794446  0.41225434  0.51669057     0.35500
C1333       C  0.67516482  0.19486706  0.56192792     0.21100
C1334       C  0.65371460  0.21628996  0.58862216    -0.38800
C1335       C  0.63053736  0.23797421  0.56440744     0.20100
C1336       C  0.62921757  0.23865102  0.51727997     0.22700
C1337       C  0.65128537  0.21793246  0.49077605    -0.39300
C1338       C  0.67376116  0.19556248  0.51480416     0.21500
N1339       N  0.70156519  0.17461030  0.57655126    -0.32600
C1340       C  0.71728646  0.16204642  0.53841559    -0.10100
C1341       C  0.70022427  0.17458941  0.49926501    -0.28900
N1342       N  0.60814429  0.26429657  0.50236278    -0.45500
C1343       C  0.59614239  0.28078940  0.54010716    -0.04800
C1344       C  0.60948889  0.26457073  0.57959664    -0.22200
H1345       H  0.65599291  0.21715041  0.62545996     0.19600
H1346       H  0.65250267  0.22080961  0.45429280     0.18400
H1347       H  0.70833302  0.17140306  0.46426638     0.14700
H1348       H  0.60713748  0.27307172  0.61462016     0.14600
H1349       H  0.70968246  0.17193801  0.61045787     0.32700
H1350       H  0.60478130  0.27232986  0.46854803     0.35500
C1351       C  0.80452353  0.21639740  0.50613368     0.21100
C1352       C  0.81114066  0.25169663  0.50459942    -0.38800
C1353       C  0.84581249  0.26045161  0.50461268     0.20100
C1354       C  0.87227884  0.23610108  0.50588869     0.22700
C1355       C  0.86565667  0.20041247  0.50717746    -0.39300
C1356       C  0.83059148  0.19155407  0.50719549     0.21500
N1357       N  0.77380569  0.20239308  0.51338159    -0.32600
C1358       C  0.77970143  0.16800008  0.51991243    -0.10100
C1359       C  0.81507969  0.16025920  0.51503913    -0.28900
N1360       N  0.90269863  0.25162946  0.51252276    -0.45500
C1361       C  0.89534385  0.28610201  0.51664686    -0.04800
C1362       C  0.85987859  0.29217638  0.51083435    -0.22200
H1363       H  0.79068630  0.27107500  0.50635618     0.19600
H1364       H  0.88611755  0.18118284  0.51098876     0.18400
H1365       H  0.82812561  0.13573715  0.52152640     0.14700
H1366       H  0.84527939  0.31596563  0.51559734     0.14600
H1367       H  0.75092968  0.21657010  0.51776505     0.32700
H1368       H  0.92642508  0.23915146  0.51844702     0.35500
C1369       C  0.74793360  0.01625893  0.73649277     0.21100
C1370       C  0.76456878  0.02689867  0.69645600    -0.38800
C1371       C  0.74865619  0.01745380  0.65513929     0.20100
C1372       C  0.71940538  0.49754822  0.65402268     0.22700
C1373       C  0.70311230  0.48666532  0.69383199    -0.39300
C1374       C  0.71835322  0.49694163  0.73485977     0.21500
N1375       N  0.75992404  0.01814907  0.77961064    -0.32600
C1376       C  0.73852670  0.99880290  0.80551124    -0.10100
C1377       C  0.71182666  0.48587543  0.77836091    -0.28900
N1378       N  0.71293025  0.48630008  0.61166339    -0.45500
C1379       C  0.73829514  0.99893589  0.58500199    -0.04800
C1380       C  0.76023970  0.01983040  0.61085930    -0.22200
H1381       H  0.78886577  0.04024417  0.69738628     0.19600
H1382       H  0.68144787  0.46940246  0.69293370     0.18400
H1383       H  0.69271065  0.46710009  0.78737752     0.14700
H1384       H  0.78408936  0.03117298  0.59975792     0.14600
H1385       H  0.78327148  0.02878251  0.79001146     0.32700
H1386       H  0.69444295  0.46807046  0.60325370     0.35500
C1387       C  0.95239185  0.31271553  0.65059840     0.21100
C1388       C  0.96329583  0.32944462  0.69065784    -0.38800
C1389       C  0.95405349  0.31358617  0.73197423     0.20100
C1390       C  0.93440344  0.28413044  0.73299275     0.22700
C1391       C  0.92309075  0.26786802  0.69320935    -0.39300
C1392       C  0.93284331  0.28322699  0.65224928     0.21500
N1393       N  0.95385428  0.32475199  0.60752450    -0.32600
C1394       C  0.93364681  0.30369373  0.58201532    -0.10100
C1395       C  0.92097983  0.27694592  0.60901700    -0.28900
N1396       N  0.92357710  0.27754821  0.77534392    -0.45500
C1397       C  0.93634038  0.30291701  0.80230733    -0.04800
C1398       C  0.95639668  0.32537070  0.77630485    -0.22200
H1399       H  0.97658394  0.35382338  0.68975891     0.19600
H1400       H  0.90579287  0.24620962  0.69412346     0.18400
H1401       H  0.90225650  0.25769552  0.60000699     0.14700
H1402       H  0.96733314  0.34953013  0.78742711     0.14600
H1403       H  0.96479109  0.34792474  0.59700057     0.32700
H1404       H  0.90511160  0.25926412  0.78330603     0.35500
C1405       C  0.87735944  0.39591612  0.85354773     0.21100
C1406       C  0.86607987  0.42740292  0.87281718    -0.38800
C1407       C  0.83452988  0.44089575  0.85604848     0.20100
C1408       C  0.81663946  0.42499587  0.82125943     0.22700
C1409       C  0.82843376  0.39425306  0.80092467    -0.39300
C1410       C  0.85925856  0.38028234  0.81872030     0.21500
N1411       N  0.90322924  0.37507247  0.86863871    -0.32600
C1412       C  0.90155563  0.34561257  0.84327812    -0.10100
C1413       C  0.87462187  0.34860208  0.81123448    -0.28900
N1414       N  0.78575661  0.44033329  0.81495162    -0.45500
C1415       C  0.78297899  0.46600579  0.84647109    -0.04800
C1416       C  0.81351946  0.46728820  0.87252966    -0.22200
H1417       H  0.87951888  0.43910875  0.90120745     0.19600
H1418       H  0.81342901  0.38089886  0.77535522     0.18400
H1419       H  0.86589343  0.32888444  0.78786026     0.14700
H1420       H  0.81910388  0.48296554  0.90203447     0.14600
H1421       H  0.91893456  0.38048209  0.89658129     0.32700
H1422       H  0.76652628  0.43218086  0.79245442     0.35500
C1423       C  0.54832200  0.31819941  0.65446687     0.21100
C1424       C  0.53721634  0.30182012  0.69452989    -0.38800
C1425       C  0.54767702  0.31701233  0.73580963     0.20100
C1426       C  0.56870334  0.34548698  0.73688229     0.22700
C1427       C  0.58040343  0.36130078  0.69704651    -0.39300
C1428       C  0.56933091  0.34665775  0.65602529     0.21500
N1429       N  0.54547539  0.30650861  0.61139071    -0.32600
C1430       C  0.56611760  0.32670783  0.58559866    -0.10100
C1431       C  0.58065903  0.35261042  0.61256530    -0.28900
N1432       N  0.58003322  0.35150072  0.77936683    -0.45500
C1433       C  0.56629607  0.32664661  0.80621338    -0.04800
C1434       C  0.54514618  0.30517456  0.78008405    -0.22200
H1435       H  0.52277277  0.27812300  0.69363736     0.19600
H1436       H  0.59870642  0.38211073  0.69795954     0.18400
H1437       H  0.60027402  0.37081826  0.60331392     0.14700
H1438       H  0.53311113  0.28157352  0.79116645     0.14600
H1439       H  0.53335068  0.28389443  0.60101808     0.32700
H1440       H  0.59920402  0.36903068  0.78768699     0.35500
C1441       C  0.67191629  0.43791082  0.88349118     0.21100
C1442       C  0.63644893  0.43120998  0.88068602    -0.38800
C1443       C  0.62741186  0.39623642  0.88374635     0.20100
C1444       C  0.65182373  0.37009029  0.88966138     0.22700
C1445       C  0.68711513  0.37685777  0.89324289    -0.39300
C1446       C  0.69615695  0.41165731  0.88959195     0.21500
N1447       N  0.68743785  0.46784941  0.87379794    -0.32600
C1448       C  0.72186415  0.46048367  0.87178904    -0.10100
C1449       C  0.72809320  0.42573257  0.88365852    -0.28900
N1450       N  0.63767777  0.33894533  0.88415870    -0.45500
C1451       C  0.60407827  0.34493673  0.87248320    -0.04800
C1452       C  0.59652229  0.38058306  0.87422294    -0.22200
H1453       H  0.61757785  0.45139713  0.87297161     0.19600
H1454       H  0.70635524  0.35625289  0.89513324     0.18400
H1455       H  0.75241181  0.41157943  0.88399875     0.14700
H1456       H  0.57263240  0.39348269  0.86421233     0.14600
H1457       H  0.67503990  0.49108514  0.86463278     0.32700
H1458       H  0.65113630  0.31532886  0.88533945     0.35500
C1459       C  0.78192545  0.13108414  0.73749094     0.21100
C1460       C  0.79775139  0.14267147  0.69770775    -0.38800
C1461       C  0.78237753  0.13261849  0.65666665     0.20100
C1462       C  0.75329002  0.11256253  0.65495006     0.22700
C1463       C  0.73706908  0.10130380  0.69497813    -0.39300
C1464       C  0.75291639  0.11083292  0.73632066     0.21500
N1465       N  0.78825320  0.14233019  0.77989376    -0.32600
C1466       C  0.76305201  0.12935088  0.80656478    -0.10100
C1467       C  0.74115873  0.10855644  0.78050568    -0.28900
N1468       N  0.74112257  0.11078002  0.61185451    -0.45500
C1469       C  0.76182368  0.13104481  0.58621172    -0.04800
C1470       C  0.78828664  0.14441060  0.61338024    -0.22200
H1471       H  0.81903987  0.16039661  0.69868707     0.19600
H1472       H  0.71297075  0.08761114  0.69405348     0.18400
H1473       H  0.71718487  0.09735832  0.79139796     0.14700
H1474       H  0.80713728  0.16347973  0.60442530     0.14600
H1475       H  0.80612288  0.16121380  0.78811661     0.32700
H1476       H  0.71818268  0.09938692  0.60132112     0.35500
C1477       C  0.66918286  0.18802209  0.85441274     0.21100
C1478       C  0.63742938  0.19913842  0.87260972    -0.38800
C1479       C  0.62448442  0.23110290  0.85635581     0.20100
C1480       C  0.64108288  0.24956217  0.82293791     0.22700
C1481       C  0.67195871  0.23781583  0.80334611    -0.39300
C1482       C  0.68537295  0.20654342  0.82064403     0.21500
N1483       N  0.68981710  0.16207687  0.86993192    -0.32600
C1484       C  0.71963627  0.16413238  0.84582438    -0.10100
C1485       C  0.71705378  0.19123406  0.81402334    -0.28900
N1486       N  0.62611101  0.28075900  0.81719435    -0.45500
C1487       C  0.59999187  0.28313415  0.84780110    -0.04800
C1488       C  0.59799223  0.25198187  0.87247706    -0.22200
H1489       H  0.62509565  0.18527202  0.89997502     0.19600
H1490       H  0.68584280  0.25318742  0.77887538     0.18400
H1491       H  0.73713706  0.20031078  0.79173207     0.14700
H1492       H  0.58164420  0.24562160  0.90080631     0.14600
H1493       H  0.68412698  0.14612670  0.89745239     0.32700
H1494       H  0.63460181  0.30034250  0.79558912     0.35500
C1495       C  0.83149793  0.19032192  0.88197240     0.21100
C1496       C  0.86679999  0.19711235  0.87715681    -0.38800
C1497       C  0.87588598  0.23211136  0.87981338     0.20100
C1498       C  0.85169458  0.25815701  0.88714817     0.22700
C1499       C  0.81667640  0.25129617  0.89292255    -0.39300
C1500       C  0.80756328  0.21652278  0.88969426     0.22100
N1501       N  0.81552048  0.16052972  0.87257163    -0.32600
C1502       C  0.78109246  0.16811639  0.87204794    -0.10100
C1503       C  0.77542903  0.20260577  0.88517830    -0.28900
N1504       N  0.86548246  0.28937807  0.88104530    -0.45500
C1505       C  0.89862333  0.28360175  0.86780517    -0.04800
C1506       C  0.90635093  0.24795197  0.86899983    -0.22200
H1507       H  0.88533830  0.17702326  0.86822231     0.19600
H1508       H  0.79750449  0.27185036  0.89598148     0.18400
H1509       H  0.75119280  0.21680135  0.88711138     0.14700
H1510       H  0.93002348  0.23522758  0.85827648     0.14600
H1511       H  0.82742747  0.13736227  0.86242562     0.32700
H1512       H  0.85209492  0.31296553  0.88344184     0.35500
C1513       C  0.75357428  0.64339985  0.35350203    -0.01700
C1514       C  0.57953798  0.81727300  0.35389532    -0.01700
C1515       C  0.92270482  0.81174275  0.34970523    -0.01700
C1516       C  0.74856343  0.98583548  0.35306674    -0.01700
C1517       C  0.75246756  0.64301931  0.03780324    -0.01700
C1518       C  0.57803330  0.81648943  0.03782421    -0.01700
C1519       C  0.92114363  0.81292249  0.03392533    -0.01700
C1520       C  0.74663784  0.98575496  0.03714202    -0.01700
O1521       O  0.96348353  0.84194906  0.48784318    -0.71000
O1522       O  0.53437468  0.84333286  0.39953910    -0.71200
O1523       O  0.96481999  0.84183527  0.39709413    -0.71100
O1524       O  0.53303587  0.84330928  0.49099723    -0.71100
O1525       O  0.53590770  0.78723225  0.49055823    -0.71100
O1526       O  0.96736246  0.78589569  0.39747493    -0.71100
O1527       O  0.53693032  0.78738200  0.39981266    -0.71000
O1528       O  0.96627976  0.78586204  0.48886882    -0.71200
V1529       V  0.99906122  0.84153549  0.44388798     1.35200
V1530       V  0.50148291  0.78767008  0.44416297     1.35200
C1531       C  0.95192194  0.81362932  0.50237652     0.78200
C1532       C  0.54880564  0.81565735  0.38582477     0.78300
C1533       C  0.95318833  0.81354238  0.38271545     0.78100
C1534       C  0.54717513  0.81556728  0.50553702     0.78100
O1535       O  0.77779101  0.52933387  0.39908053    -0.71000
O1536       O  0.77862069  0.59647087  0.49380391    -0.71200
O1537       O  0.77673771  0.52676738  0.48971507    -0.71100
O1538       O  0.77932062  0.59933376  0.40239524    -0.71100
O1539       O  0.72356825  0.60021502  0.39843746    -0.71100
O1540       O  0.72097161  0.53182685  0.49146156    -0.71100
O1541       O  0.72294857  0.60161701  0.48931463    -0.71000
O1542       O  0.72199114  0.53028682  0.40006858    -0.71200
V1543       V  0.77706690  0.56312982  0.44619901     1.35200
V1544       V  0.72341659  0.56585044  0.44483331     1.35200
C1545       C  0.74975742  0.51672793  0.38532819     0.78200
C1546       C  0.75114813  0.61187211  0.50609538     0.78300
C1547       C  0.74825624  0.51638498  0.50487188     0.78100
C1548       C  0.75181734  0.61293113  0.38632725     0.78100
C1549       C  0.86979355  0.89021044  0.05811709     0.21100
C1550       C  0.84813042  0.91101023  0.08513542    -0.38800
C1551       C  0.82503049  0.93282962  0.06127983     0.20100
C1552       C  0.82310790  0.93342259  0.01419032     0.22700
C1553       C  0.84402596  0.91185696  0.98730201    -0.39300
C1554       C  0.86803921  0.89092113  0.01097695     0.21500
N1555       N  0.89095913  0.86456857  0.07263809    -0.32600
C1556       C  0.90296276  0.84854379  0.03445128    -0.10100
C1557       C  0.88952337  0.86492691  0.99531687    -0.28900
N1558       N  0.79681848  0.95386557  0.99993504    -0.45500
C1559       C  0.78144655  0.96633270  0.03818896    -0.04800
C1560       C  0.79862195  0.95352672  0.07719798    -0.22200
H1561       H  0.84825488  0.90926979  0.12203177     0.19600
H1562       H  0.84023641  0.90987828  0.95096685     0.18400
H1563       H  0.89180372  0.85602882  0.96049196     0.14700
H1564       H  0.79128521  0.95641632  0.11256060     0.14600
H1565       H  0.89410913  0.85675226  0.10657048     0.32700
H1566       H  0.78811068  0.95708274  0.96628076     0.35500
C1567       C  0.62648050  0.89270415  0.00696081     0.21100
C1568       C  0.63312642  0.92837358  0.00782675    -0.38800
C1569       C  0.66813555  0.93723921  0.00724749     0.20100
C1570       C  0.69416893  0.91239330  0.00579922     0.22700
C1571       C  0.68752387  0.87704662  0.00430264    -0.39300
C1572       C  0.65283979  0.86825870  0.00509944     0.21500
N1573       N  0.59628849  0.87733151  0.01498714    -0.32600
C1574       C  0.60363547  0.84287756  0.01943939    -0.10100
C1575       C  0.63881305  0.83652354  0.01212107    -0.28900
N1576       N  0.72495628  0.92642126  0.01295932    -0.45500
C1577       C  0.71908131  0.96076932  0.01994801    -0.04800
C1578       C  0.68369711  0.96852420  0.01521097    -0.22200
H1579       H  0.61276563  0.94758727  0.01212418     0.19600
H1580       H  0.70801662  0.85767158  0.00581163     0.18400
H1581       H  0.65330364  0.81255913  0.01635126     0.14700
H1582       H  0.67077178  0.99303805  0.02177422     0.14600
H1583       H  0.57282307  0.88993941  0.02167907     0.32700
H1584       H  0.74795703  0.91225988  0.01679314     0.35500
C1585       C  0.67517752  0.69487962  0.06190006     0.21100
C1586       C  0.65372657  0.71629850  0.08859660    -0.38800
C1587       C  0.63055633  0.73798940  0.06438303     0.20100
C1588       C  0.62924905  0.73868119  0.01725539     0.22700
C1589       C  0.65132346  0.71797271  0.99074976    -0.39300
C1590       C  0.67378482  0.69558867  0.01477601     0.21500
N1591       N  0.70156590  0.67460903  0.07652435    -0.32600
C1592       C  0.71728860  0.66204916  0.03838813    -0.10100
C1593       C  0.70023989  0.67460765  0.99923695    -0.28900
N1594       N  0.60817275  0.76432448  0.00234286    -0.45500
C1595       C  0.59615669  0.78080076  0.04009135    -0.04800
C1596       C  0.60949772  0.76457446  0.07957803    -0.22200
H1597       H  0.65599455  0.71714600  0.12543603     0.19600
H1598       H  0.65255218  0.72086293  0.95426894     0.18400
H1599       H  0.70835738  0.67143011  0.96424087     0.14700
H1600       H  0.60713582  0.77306307  0.11460543     0.14600
H1601       H  0.70967541  0.67192598  0.11043266     0.32700
H1602       H  0.60481755  0.77236898  0.96853148     0.35500
C1603       C  0.80452357  0.71640041  0.00612066     0.21100
C1604       C  0.81114012  0.75169948  0.00457803    -0.38800
C1605       C  0.84581201  0.76045429  0.00458660     0.20100
C1606       C  0.87227839  0.73610402  0.00586705     0.22700
C1607       C  0.86565623  0.70041569  0.00716570    -0.39300
C1608       C  0.83059132  0.69155724  0.00718597     0.21500
N1609       N  0.77380598  0.70239633  0.01336771    -0.32600
C1610       C  0.77970135  0.66800279  0.01989726    -0.10100
C1611       C  0.81507961  0.66026219  0.01502793    -0.28900
N1612       N  0.90269865  0.75163311  0.01249464    -0.45500
C1613       C  0.89534453  0.78610609  0.01661275    -0.04800
C1614       C  0.85987848  0.79217944  0.01080067    -0.22200
H1615       H  0.79068556  0.77107804  0.00632928     0.19600
H1616       H  0.88611715  0.68118647  0.01097971     0.18400
H1617       H  0.82812495  0.63573960  0.02151351     0.14700
H1618       H  0.84527780  0.81596765  0.01556390     0.14600
H1619       H  0.75093071  0.71657484  0.01774947     0.32700
H1620       H  0.92642500  0.73915557  0.01842124     0.35500
C1621       C  0.74795462  0.51627896  0.23644231     0.21100
C1622       C  0.76459823  0.52690882  0.19640635    -0.38800
C1623       C  0.74867601  0.51748146  0.15508794     0.20100
C1624       C  0.71941935  0.99762702  0.15402902     0.22700
C1625       C  0.70310226  0.98677302  0.19383421    -0.39300
C1626       C  0.71836353  0.99701083  0.23486583     0.21500
N1627       N  0.75994531  0.51815514  0.27956222    -0.32600
C1628       C  0.73852877  0.49882701  0.30545955    -0.10100
C1629       C  0.71181442  0.98594837  0.27836258    -0.28900
N1630       N  0.71293099  0.98638645  0.11166958    -0.45500
C1631       C  0.73830868  0.49896187  0.08495361    -0.04800
C1632       C  0.76026278  0.51984810  0.11080871    -0.22200
H1633       H  0.78890666  0.54023375  0.19733794     0.19600
H1634       H  0.68140416  0.96955263  0.19292978     0.18400
H1635       H  0.69266080  0.96720922  0.28736756     0.14700
H1636       H  0.78412160  0.53117257  0.09970875     0.14600
H1637       H  0.78330182  0.52876759  0.28996645     0.32700
H1638       H  0.69440918  0.96819304  0.10325712     0.35500
C1639       C  0.95240616  0.81270660  0.15056327     0.21100
C1640       C  0.96331371  0.82943267  0.19062380    -0.38800
C1641       C  0.95407156  0.81357331  0.23194029     0.20100
C1642       C  0.93442613  0.78411442  0.23295603     0.22700
C1643       C  0.92311276  0.76785353  0.19317201    -0.39300
C1644       C  0.93285658  0.78321875  0.15221308     0.21500
N1645       N  0.95385941  0.82474966  0.10749200    -0.32600
C1646       C  0.93364254  0.80369851  0.08198585    -0.10100
C1647       C  0.92097904  0.77694776  0.10898479    -0.28900
N1648       N  0.92359287  0.77753404  0.27530381    -0.45500
C1649       C  0.93634562  0.80290646  0.30227034    -0.04800
C1650       C  0.95640224  0.82536272  0.27627140    -0.22200
H1651       H  0.97659822  0.85381344  0.18972563     0.19600
H1652       H  0.90581435  0.74619552  0.19408586     0.18400
H1653       H  0.90225215  0.75770025  0.09997679     0.14700
H1654       H  0.96733122  0.84952541  0.28739444     0.14600
H1655       H  0.96479820  0.84792163  0.09696889     0.32700
H1656       H  0.90512526  0.75925017  0.28325693     0.35500
C1657       C  0.87732408  0.89587981  0.35351904     0.21100
C1658       C  0.86605470  0.92737284  0.37277869    -0.38800
C1659       C  0.83449191  0.94085455  0.35604170     0.20100
C1660       C  0.81657586  0.92493623  0.32129175     0.22700
C1661       C  0.82835601  0.89418223  0.30096867    -0.39300
C1662       C  0.85920009  0.88022606  0.31872913     0.21500
N1663       N  0.90321587  0.87505426  0.36858456    -0.32600
C1664       C  0.90153723  0.84558493  0.34324425    -0.10100
C1665       C  0.87457681  0.84855183  0.31123471    -0.28900
N1666       N  0.78569619  0.94028334  0.31499572    -0.45500
C1667       C  0.78294648  0.96597763  0.34648963    -0.04800
C1668       C  0.81350219  0.96726626  0.37251412    -0.22200
H1669       H  0.87951813  0.93909768  0.40113437     0.19600
H1670       H  0.81333489  0.88081634  0.27542717     0.18400
H1671       H  0.86584056  0.82882219  0.28788351     0.14700
H1672       H  0.81911513  0.98296606  0.40198778     0.14600
H1673       H  0.91893957  0.88048430  0.39650071     0.32700
H1674       H  0.76645162  0.93212940  0.29252083     0.35500
C1675       C  0.54833489  0.81818297  0.15445636     0.21100
C1676       C  0.53723285  0.80179556  0.19451528    -0.38800
C1677       C  0.54768484  0.81698877  0.23579782     0.20100
C1678       C  0.56870062  0.84547110  0.23687596     0.22700
C1679       C  0.58039827  0.86129234  0.19704448    -0.39300
C1680       C  0.56933365  0.84664883  0.15602061     0.21500
N1681       N  0.54549087  0.80649783  0.11137785    -0.32600
C1682       C  0.56612601  0.82670790  0.08559080    -0.10100
C1683       C  0.58065869  0.85261229  0.11256196    -0.28900
N1684       N  0.58002294  0.85148794  0.27936222    -0.45500
C1685       C  0.56628950  0.82662983  0.30620588    -0.04800
C1686       C  0.54515163  0.80514968  0.28007133    -0.22200
H1687       H  0.52279635  0.77809414  0.19361763     0.19600
H1688       H  0.59869238  0.88211007  0.19796278     0.18400
H1689       H  0.60026547  0.87082976  0.10331286     0.14700
H1690       H  0.53312242  0.78154480  0.29115097     0.14600
H1691       H  0.53337361  0.78388093  0.10100005     0.32700
H1692       H  0.59918799  0.86902361  0.28768375     0.35500
C1693       C  0.67187533  0.93792270  0.38345436     0.21100
C1694       C  0.63640933  0.93121801  0.38062979    -0.38800
C1695       C  0.62737402  0.89624469  0.38371731     0.20100
C1696       C  0.65178610  0.87010319  0.38966933     0.22700
C1697       C  0.68707450  0.87687466  0.39326656    -0.39300
C1698       C  0.69611380  0.91167258  0.38959432     0.21500
N1699       N  0.68740133  0.96785938  0.37375866    -0.32600
C1700       C  0.72182862  0.96049139  0.37178175    -0.10100
C1701       C  0.72805112  0.92574549  0.38368330    -0.28900
N1702       N  0.63764604  0.83895401  0.38418731    -0.45500
C1703       C  0.60405116  0.84493674  0.37248458    -0.04800
C1704       C  0.59648918  0.88058309  0.37419379    -0.22200
H1705       H  0.61753945  0.95139996  0.37288631     0.19600
H1706       H  0.70631572  0.85627230  0.39518938     0.18400
H1707       H  0.75236974  0.91159260  0.38406764     0.14700
H1708       H  0.57260106  0.89347496  0.36415820     0.14600
H1709       H  0.67500890  0.99109516  0.36458085     0.32700
H1710       H  0.65110632  0.81533914  0.38539846     0.35500
C1711       C  0.78190736  0.63107064  0.23746173     0.21100
C1712       C  0.79773333  0.64265976  0.19768116    -0.38800
C1713       C  0.78236085  0.63260870  0.15664045     0.20100
C1714       C  0.75327278  0.61255402  0.15492000     0.22700
C1715       C  0.73704983  0.60129409  0.19494745    -0.39300
C1716       C  0.75289772  0.61082053  0.23629189     0.21500
N1717       N  0.78823775  0.64231490  0.27986296    -0.32600
C1718       C  0.76303989  0.62933438  0.30653807    -0.10100
C1719       C  0.74114317  0.60854214  0.28047972    -0.28900
N1720       N  0.74110963  0.61077283  0.11182177    -0.45500
C1721       C  0.76181512  0.63103768  0.08618397    -0.04800
C1722       C  0.78827502  0.64440163  0.11335740    -0.22200
H1723       H  0.81902240  0.66038418  0.19866244     0.19600
H1724       H  0.71295173  0.58760112  0.19402102     0.18400
H1725       H  0.71717038  0.59734348  0.29137497     0.14700
H1726       H  0.80712686  0.66347107  0.10440829     0.14600
H1727       H  0.80610623  0.66120107  0.28807915     0.32700
H1728       H  0.71817022  0.59938127  0.10128353     0.35500
C1729       C  0.66917698  0.68800940  0.35437054     0.21100
C1730       C  0.63741271  0.69911416  0.37254896    -0.38800
C1731       C  0.62447868  0.73109178  0.35632321     0.20100
C1732       C  0.64109880  0.74957406  0.32294735     0.22700
C1733       C  0.67198457  0.73783942  0.30337105    -0.39300
C1734       C  0.68538640  0.70655317  0.32064063     0.21500
N1735       N  0.68980331  0.66205436  0.36988015    -0.32600
C1736       C  0.71963699  0.66412648  0.34580528    -0.10100
C1737       C  0.71706980  0.69124654  0.31403032    -0.28900
N1738       N  0.62613079  0.78077462  0.31722441    -0.45500
C1739       C  0.59999193  0.78313062  0.34780385    -0.04800
C1740       C  0.59797519  0.75196056  0.37243904    -0.22200
H1741       H  0.62506221  0.68522820  0.39988314     0.19600
H1742       H  0.68588373  0.75322785  0.27893439     0.18400
H1743       H  0.73716440  0.70033632  0.29176657     0.14700
H1744       H  0.58160478  0.74557815  0.40073631     0.14600
H1745       H  0.68409510  0.64608665  0.39737540     0.32700
H1746       H  0.63463310  0.80037095  0.29564796     0.35500
C1747       C  0.83151153  0.69029157  0.38189967     0.21100
C1748       C  0.86681141  0.69708224  0.37705727    -0.38800
C1749       C  0.87590075  0.73207898  0.37974129     0.20100
C1750       C  0.85171400  0.75812144  0.38712030     0.22700
C1751       C  0.81669854  0.75126037  0.39291357    -0.39300
C1752       C  0.80758222  0.71648998  0.38966173     0.22100
N1753       N  0.81552762  0.66050248  0.37250306    -0.32600
C1754       C  0.78109966  0.66809134  0.37201642    -0.10100
C1755       C  0.77544511  0.70257627  0.38517046    -0.28900
N1756       N  0.86550018  0.78934473  0.38103985    -0.45500
C1757       C  0.89863340  0.78357430  0.36776530    -0.04800
C1758       C  0.90636233  0.74792434  0.36892503    -0.22200
H1759       H  0.88534428  0.67699672  0.36809030     0.19600
H1760       H  0.79752972  0.77181407  0.39600846     0.18400
H1761       H  0.75121037  0.71677125  0.38713886     0.14700
H1762       H  0.93003105  0.73520576  0.35817560     0.14600
H1763       H  0.82742765  0.63733643  0.36233781     0.32700
H1764       H  0.85211549  0.81293135  0.38347576     0.35500
C1765       C  0.75358220  0.64342423  0.85351692    -0.01700
C1766       C  0.57954942  0.81727397  0.85386901    -0.01700
C1767       C  0.92272337  0.81173933  0.84972730    -0.01700
C1768       C  0.74858971  0.98581738  0.85309323    -0.01700
C1769       C  0.75246248  0.64301772  0.53781116    -0.01700
C1770       C  0.57802301  0.81648623  0.53781091    -0.01700
C1771       C  0.92113380  0.81291168  0.53394707    -0.01700
C1772       C  0.74664312  0.98574131  0.53716098    -0.01700
O1773       O  0.96349561  0.84195235  0.98782290    -0.71000
O1774       O  0.53440709  0.84333414  0.89955057    -0.71200
O1775       O  0.96485443  0.84183240  0.89708224    -0.71100
O1776       O  0.53304535  0.84330907  0.99101182    -0.71100
O1777       O  0.53593332  0.78723275  0.99055442    -0.71100
O1778       O  0.96738068  0.78589214  0.89748869    -0.71100
O1779       O  0.53694643  0.78738315  0.89980254    -0.71000
O1780       O  0.96630392  0.78586583  0.98887601    -0.71200
V1781       V  0.99908440  0.84153564  0.94388654     1.35200
V1782       V  0.50150535  0.78767006  0.94416545     1.35200
C1783       C  0.95193596  0.81363444  0.00236302     0.78200
C1784       C  0.54882653  0.81565844  0.88581830     0.78300
C1785       C  0.95321196  0.81353866  0.88272318     0.78100
C1786       C  0.54718936  0.81556792  0.00554652     0.78100
O1787       O  0.77779337  0.52936135  0.89905280    -0.71000
O1788       O  0.77862415  0.59647469  0.99379892    -0.71200
O1789       O  0.77674889  0.52677623  0.98968064    -0.71100
O1790       O  0.77932138  0.59935769  0.90240038    -0.71100
O1791       O  0.72356949  0.60022056  0.89841729    -0.71100
O1792       O  0.72098436  0.53184695  0.99146522    -0.71100
O1793       O  0.72295350  0.60163551  0.98928984    -0.71000
O1794       O  0.72199369  0.53028943  0.90007607    -0.71200
V1795       V  0.77707118  0.56314550  0.94618294     1.35200
V1796       V  0.72342078  0.56586217  0.94482369     1.35200
C1797       C  0.74976018  0.51673997  0.88532484     0.78200
C1798       C  0.75115263  0.61188231  0.00607944     0.78300
C1799       C  0.74827202  0.51640082  0.00485763     0.78100
C1800       C  0.75181864  0.61294963  0.88632763     0.78100
C1801       C  0.86979267  0.89020133  0.55815985     0.21100
C1802       C  0.84813367  0.91100614  0.58517821    -0.38800
C1803       C  0.82504370  0.93283558  0.56132025     0.20100
C1804       C  0.82312738  0.93343155  0.51422992     0.22700
C1805       C  0.84404417  0.91186538  0.48734362    -0.39300
C1806       C  0.86804612  0.89092029  0.51101966     0.21500
N1807       N  0.89094720  0.86454947  0.57267697    -0.32600
C1808       C  0.90295311  0.84853114  0.53448579    -0.10100
C1809       C  0.88952350  0.86492406  0.49535499    -0.28900
N1810       N  0.79683806  0.95387103  0.49996907    -0.45500
C1811       C  0.78145738  0.96633188  0.53821874    -0.04800
C1812       C  0.79863217  0.95353201  0.57723270    -0.22200
H1813       H  0.84825113  0.90925994  0.62207414     0.19600
H1814       H  0.84025910  0.90989074  0.45100756     0.18400
H1815       H  0.89180991  0.85603553  0.46052629     0.14700
H1816       H  0.79128998  0.95642087  0.61259352     0.14600
H1817       H  0.89408993  0.85672548  0.60660753     0.32700
H1818       H  0.78813340  0.95708560  0.46631304     0.35500
C1819       C  0.62648802  0.89269572  0.50697356     0.21100
C1820       C  0.63313866  0.92836344  0.50785270    -0.38800
C1821       C  0.66814817  0.93722533  0.50726780     0.20100
C1822       C  0.69418053  0.91237861  0.50580776     0.22700
C1823       C  0.68753075  0.87703177  0.50430801    -0.39300
C1824       C  0.65284404  0.86824710  0.50510506     0.21500
N1825       N  0.59629177  0.87732631  0.51498429    -0.32600
C1826       C  0.60363103  0.84286991  0.51942349    -0.10100
C1827       C  0.63880924  0.83651178  0.51210852    -0.28900
N1828       N  0.72497089  0.92640679  0.51295601    -0.45500
C1829       C  0.71909519  0.96075428  0.51995037    -0.04800
C1830       C  0.68371049  0.96850856  0.51523007    -0.22200
H1831       H  0.61278046  0.94757899  0.51215694     0.19600
H1832       H  0.70802149  0.85765425  0.50580607     0.18400
H1833       H  0.65329445  0.81254336  0.51632962     0.14700
H1834       H  0.67078599  0.99302048  0.52180813     0.14600
H1835       H  0.57282790  0.88993687  0.52167737     0.32700
H1836       H  0.74797402  0.91224781  0.51678111     0.35500
C1837       C  0.67514563  0.69485360  0.56190082     0.21100
C1838       C  0.65368421  0.71626631  0.58859505    -0.38800
C1839       C  0.63051883  0.73796328  0.56437884     0.20100
C1840       C  0.62922279  0.73866224  0.51725101     0.22700
C1841       C  0.65130386  0.71795706  0.49074940    -0.39300
C1842       C  0.67376293  0.69557066  0.51477683     0.21500
N1843       N  0.70154034  0.67459008  0.57652764    -0.32600
C1844       C  0.71727838  0.66204457  0.53839300    -0.10100
C1845       C  0.70022984  0.67460176  0.49924060    -0.28900
N1846       N  0.60815773  0.76431469  0.50233608    -0.45500
C1847       C  0.59613889  0.78079224  0.54008201    -0.04800
C1848       C  0.60946355  0.76455461  0.57957080    -0.22200
H1849       H  0.65594574  0.71710997  0.62543525     0.19600
H1850       H  0.65254506  0.72085785  0.45427130     0.18400
H1851       H  0.70835381  0.67143176  0.46424576     0.14700
H1852       H  0.60709504  0.77304026  0.61459867     0.14600
H1853       H  0.70964303  0.67190314  0.61043814     0.32700
H1854       H  0.60481398  0.77236552  0.46852558     0.35500
C1855       C  0.80451838  0.71639062  0.50610074     0.21100
C1856       C  0.81113552  0.75168947  0.50456573    -0.38800
C1857       C  0.84580704  0.76044444  0.50458766     0.20100
C1858       C  0.87227355  0.73609431  0.50586966     0.22700
C1859       C  0.86565148  0.70040573  0.50716101    -0.39300
C1860       C  0.83058624  0.69154731  0.50717256     0.21500
N1861       N  0.77379996  0.70238802  0.51334802    -0.32600
C1862       C  0.77969470  0.66799609  0.51988847    -0.10100
C1863       C  0.81507354  0.66025401  0.51502296    -0.28900
N1864       N  0.90269226  0.75162337  0.51250934    -0.45500
C1865       C  0.89533621  0.78609572  0.51663248    -0.04800
C1866       C  0.85987132  0.79216911  0.51081477    -0.22200
H1867       H  0.79068080  0.77106780  0.50631710     0.19600
H1868       H  0.88611195  0.68117656  0.51098072     0.18400
H1869       H  0.82811881  0.63573333  0.52152202     0.14700
H1870       H  0.84527017  0.81595700  0.51557893     0.14600
H1871       H  0.75092522  0.71656724  0.51772961     0.32700
H1872       H  0.92641846  0.73914607  0.51843838     0.35500
C1873       C  0.74792618  0.51628024  0.73645120     0.21100
C1874       C  0.76456632  0.52690483  0.69641104    -0.38800
C1875       C  0.74864609  0.51746606  0.65509693     0.20100
C1876       C  0.71942995  0.99751505  0.65406094     0.22700
C1877       C  0.70314361  0.98661548  0.69386609    -0.39300
C1878       C  0.71837401  0.99690027  0.73489562     0.21500
N1879       N  0.75992335  0.51816256  0.77956678    -0.32600
C1880       C  0.73851859  0.49882837  0.80547223    -0.10100
C1881       C  0.71184773  0.98583129  0.77839464    -0.28900
N1882       N  0.71296021  0.98627091  0.61169967    -0.45500
C1883       C  0.73827638  0.49894177  0.58496426    -0.04800
C1884       C  0.76023393  0.51982528  0.61081773    -0.22200
H1885       H  0.78887334  0.54023247  0.69733713     0.19600
H1886       H  0.68149069  0.96933829  0.69296312     0.18400
H1887       H  0.69274271  0.96704363  0.78740811     0.14700
H1888       H  0.78409281  0.53114825  0.59971542     0.14600
H1889       H  0.78327946  0.52878063  0.78996189     0.32700
H1890       H  0.69448477  0.96803004  0.60328654     0.35500
C1891       C  0.95237643  0.81270647  0.65058624     0.21100
C1892       C  0.96328524  0.82943361  0.69064332    -0.38800
C1893       C  0.95405301  0.81357018  0.73195902     0.20100
C1894       C  0.93440459  0.78411339  0.73297940     0.22700
C1895       C  0.92308066  0.76785650  0.69319792    -0.39300
C1896       C  0.93282529  0.78321975  0.65223784     0.21500
N1897       N  0.95384243  0.82474117  0.60751310    -0.32600
C1898       C  0.93363230  0.80368555  0.58200507    -0.10100
C1899       C  0.92095974  0.77694030  0.60900652    -0.28900
N1900       N  0.92358820  0.77752673  0.77533284    -0.45500
C1901       C  0.93635497  0.80289495  0.80229439    -0.04800
C1902       C  0.95640565  0.82535103  0.77628942    -0.22200
H1903       H  0.97657330  0.85381238  0.68974352     0.19600
H1904       H  0.90578326  0.74619773  0.69411466     0.18400
H1905       H  0.90223504  0.75769129  0.59999586     0.14700
H1906       H  0.96734180  0.84951092  0.78741050     0.14600
H1907       H  0.96478413  0.84791133  0.59698844     0.32700
H1908       H  0.90512280  0.75924297  0.78329612     0.35500
C1909       C  0.87736774  0.89589022  0.85353065     0.21100
C1910       C  0.86609872  0.92738458  0.87279008    -0.38800
C1911       C  0.83453610  0.94086778  0.85605012     0.20100
C1912       C  0.81662193  0.92494804  0.82129922     0.22700
C1913       C  0.82840284  0.89419538  0.80097637    -0.39300
C1914       C  0.85924441  0.88023861  0.81873855     0.21500
N1915       N  0.90325232  0.87505787  0.86860254    -0.32600
C1916       C  0.90156663  0.84558738  0.84326457    -0.10100
C1917       C  0.87461193  0.84856059  0.81124963    -0.28900
N1918       N  0.78573826  0.94028638  0.81500827    -0.45500
C1919       C  0.78298207  0.96597818  0.84650400    -0.04800
C1920       C  0.81353917  0.96727450  0.87252600    -0.22200
H1921       H  0.87955821  0.93910548  0.90115207     0.19600
H1922       H  0.81338093  0.88082794  0.77543712     0.18400
H1923       H  0.86587152  0.82883213  0.78789948     0.14700
H1924       H  0.81914530  0.98297374  0.90200295     0.14600
H1925       H  0.91897482  0.88048394  0.89652213     0.32700
H1926       H  0.76649432  0.93212379  0.79253830     0.35500
C1927       C  0.54831124  0.81821376  0.65443912     0.21100
C1928       C  0.53720189  0.80183476  0.69450051    -0.38800
C1929       C  0.54766588  0.81702188  0.73578247     0.20100
C1930       C  0.56869914  0.84549110  0.73685796     0.22700
C1931       C  0.58040387  0.86130374  0.69702388    -0.39300
C1932       C  0.56932815  0.84666598  0.65600115     0.21500
N1933       N  0.54546583  0.80652348  0.61136259    -0.32600
C1934       C  0.56611838  0.82671529  0.58557560    -0.10100
C1935       C  0.58066332  0.85261457  0.61254401    -0.28900
N1936       N  0.58003195  0.85149851  0.77934276    -0.45500
C1937       C  0.56628971  0.82664630  0.80618807    -0.04800
C1938       C  0.54513407  0.80518117  0.78005622    -0.22200
H1939       H  0.52275418  0.77814029  0.69360507     0.19600
H1940       H  0.59871384  0.88210744  0.69793922     0.18400
H1941       H  0.60028534  0.87081604  0.60329692     0.14700
H1942       H  0.53309477  0.78158159  0.79113565     0.14600
H1943       H  0.53333562  0.78391289  0.60098751     0.32700
H1944       H  0.59920862  0.86902202  0.78766306     0.35500
C1945       C  0.67192166  0.93789262  0.88350902     0.21100
C1946       C  0.63645535  0.93119281  0.88068577    -0.38800
C1947       C  0.62741729  0.89621928  0.88373029     0.20100
C1948       C  0.65182707  0.87007120  0.88964385     0.22700
C1949       C  0.68711797  0.87683696  0.89324228    -0.39300
C1950       C  0.69616058  0.91163778  0.88961234     0.21500
N1951       N  0.68744512  0.96783287  0.87383116    -0.32600
C1952       C  0.72187158  0.96046742  0.87183483    -0.10100
C1953       C  0.72809800  0.92571493  0.88370233    -0.28900
N1954       N  0.63767939  0.83892791  0.88413313    -0.45500
C1955       C  0.60408074  0.84492353  0.87245519    -0.04800
C1956       C  0.59652764  0.88056983  0.87419936    -0.22200
H1957       H  0.61758609  0.95138186  0.87297252     0.19600
H1958       H  0.70635743  0.85623148  0.89513376     0.18400
H1959       H  0.75241610  0.91156101  0.88405109     0.14700
H1960       H  0.57263870  0.89347230  0.86419110     0.14600
H1961       H  0.67504916  0.99106850  0.86466116     0.32700
H1962       H  0.65113528  0.81531005  0.88531754     0.35500
C1963       C  0.78192457  0.63111914  0.73748077     0.21100
C1964       C  0.79773906  0.64271970  0.69769633    -0.38800
C1965       C  0.78236942  0.63265622  0.65665681     0.20100
C1966       C  0.75329537  0.61258091  0.65494329     0.22700
C1967       C  0.73708334  0.60131318  0.69497296    -0.39300
C1968       C  0.75292792  0.61085028  0.73631326     0.21500
N1969       N  0.78825097  0.64236359  0.77988401    -0.32600
C1970       C  0.76306081  0.62936549  0.80655718    -0.10100
C1971       C  0.74117600  0.60856245  0.78049932    -0.28900
N1972       N  0.74113089  0.61078307  0.61184723    -0.45500
C1973       C  0.76182074  0.63105538  0.58619888    -0.04800
C1974       C  0.78827238  0.64444504  0.61336737    -0.22200
H1975       H  0.81901715  0.66045742  0.69867383     0.19600
H1976       H  0.71299398  0.58760497  0.69405110     0.18400
H1977       H  0.71720979  0.59734974  0.79139429     0.14700
H1978       H  0.80711124  0.66352498  0.60440838     0.14600
H1979       H  0.80610926  0.66125831  0.78810666     0.32700
H1980       H  0.71819961  0.59937238  0.60131560     0.35500
C1981       C  0.66918433  0.68802328  0.85435936     0.21100
C1982       C  0.63741786  0.69912535  0.87252947    -0.38800
C1983       C  0.62447718  0.73109347  0.85628474     0.20100
C1984       C  0.64109159  0.74956952  0.82289728     0.22700
C1985       C  0.67198335  0.73783924  0.80333359    -0.39300
C1986       C  0.68539298  0.70656301  0.82062438     0.21500
N1987       N  0.68981264  0.66207491  0.86988140    -0.32600
C1988       C  0.71964714  0.66414805  0.84581067    -0.10100
C1989       C  0.71708065  0.69126313  0.81402840    -0.28900
N1990       N  0.62611931  0.78076699  0.81716477    -0.45500
C1991       C  0.59998854  0.78312751  0.84775587    -0.04800
C1992       C  0.59797741  0.75196310  0.87240216    -0.22200
H1993       H  0.62507037  0.68524571  0.89987169     0.19600
H1994       H  0.68588109  0.75322507  0.77889253     0.18400
H1995       H  0.73717583  0.70035173  0.79176474     0.14700
H1996       H  0.58162062  0.74558832  0.90071626     0.14600
H1997       H  0.68410497  0.64610910  0.89737885     0.32700
H1998       H  0.63462027  0.80036185  0.79558486     0.35500
C1999       C  0.83151457  0.69030555  0.88195667     0.21100
C2000       C  0.86681669  0.69709057  0.87712623    -0.38800
C2001       C  0.87590826  0.73208763  0.87978965     0.20100
C2002       C  0.85172134  0.75813472  0.88714061     0.22700
C2003       C  0.81670414  0.75127950  0.89292346    -0.39300
C2004       C  0.80758571  0.71650921  0.88969285     0.22100
N2005       N  0.81552939  0.66051779  0.87255860    -0.32600
C2006       C  0.78110267  0.66811231  0.87204906    -0.10100
C2007       C  0.77544806  0.70259980  0.88518911    -0.28900
N2008       N  0.86551100  0.78935467  0.88104903    -0.45500
C2009       C  0.89864773  0.78357788  0.86779551    -0.04800
C2010       C  0.90637377  0.74792719  0.86897638    -0.22200
H2011       H  0.88534996  0.67699977  0.86818030     0.19600
H2012       H  0.79753624  0.77183637  0.89599376     0.18400
H2013       H  0.75121497  0.71679996  0.88713253     0.14700
H2014       H  0.93004395  0.73520317  0.85824300     0.14600
H2015       H  0.82742948  0.63734994  0.86240041     0.32700
H2016       H  0.85212638  0.81294240  0.88346426     0.35500
loop_ 
_geom_bond_atom_site_label_1 
_geom_bond_atom_site_label_2 
_geom_bond_distance 
_geom_bond_site_symmetry_2 
_ccdc_geom_bond_type 
C1           C36   1.521       .  S
C1          C206   1.525       .  S
C1          C224   1.543       .  S
C1          C242   1.541       .  S
C2           C20   1.522       .  S
C2          C173   1.525       .  S
C2          C191   1.541       .  S
C2          C227   1.539       .  S
C3           C21   1.524       .  S
C3          C137   1.527       .  S
C3          C152   1.542       .  S
C3          C245   1.542       .  S
C4          C155   1.540       .  S
C4          C188   1.542       .  S
C4          C537   1.526       .  S
C4          C620   1.526       .  S
C5           C80   1.538       .  S
C5           C98   1.538       .  S
C5          C209   1.529       .  S
C5          C286   1.523       .  S
C6           C62   1.536       .  S
C6           C83   1.538       .  S
C6          C170   1.527       .  S
C6          C274   1.520       .  S
C7           C44   1.535       .  S
C7          C101   1.538       .  S
C7          C134   1.525       .  S
C7          C271   1.516       .  S
C8           C47   1.533       .  S
C8           C65   1.536       .  S
C8          C791   1.516       .  S
C8          C623   1.527       .  S
O9           V17   1.894       .  S
O9           C19   1.265       .  A
O10        V1025   1.896   1_455  S
O10          C20   1.266       .  A
O11          V17   1.901       .  S
O11          C21   1.262       .  A
O12        V1025   1.903   1_455  S
O12          C22   1.267       .  A
O13          V18   1.898       .  S
O13          C22   1.265       .  A
O14        V1026   1.898       .  S
O14          C21   1.266       .  A
O15          V18   1.898       .  S
O15          C20   1.262       .  A
O16        V1026   1.901       .  S
O16          C19   1.266       .  A
V17        O1018   1.896       .  S
V17        O1020   1.903       .  S
V17        V1026   2.082       .  T
V18        O1022   1.898   1_455  S
V18        O1024   1.901   1_455  S
V18        V1025   2.082   1_455  T
C19         C259   1.516       .  S
C22         C258   1.520       .  S
O23          V31   1.902       .  S
O23          C33   1.263       .  A
O24          V31   1.902       .  S
O24          C34   1.266       .  A
O25          V31   1.895       .  S
O25          C35   1.265       .  A
O26          V31   1.900       .  S
O26          C36   1.267       .  A
O27          V32   1.898       .  S
O27          C36   1.262       .  A
O28          V32   1.898       .  S
O28          C35   1.265       .  A
O29          V32   1.901       .  S
O29          C34   1.266       .  A
O30          V32   1.903       .  S
O30          C33   1.268       .  A
V31          V32   2.081       .  T
C33         C508   1.526   1_545  S
C34         C257   1.523       .  S
C35         C764   1.516   1_545  S
C37          C42   1.382       .  A
C37          C38   1.402       .  A
C37          N43   1.342       .  A
C38          C39   1.401       .  A
C38          H49   1.082       .  S
C39          C48   1.373       .  A
C39          C40   1.381       .  A
C40          C41   1.400   1_554  A
C40          N46   1.342   1_554  A
C41          C42   1.401   1_556  A
C41          H50   1.076       .  S
C42          C45   1.375   1_554  A
N43          C44   1.361       .  A
N43          H53   1.044       .  S
C44          C45   1.401   1_554  A
C45          H51   1.081       .  S
N46          C47   1.358   1_556  A
N46          H54   1.046       .  S
C47          C48   1.403       .  A
C48          H52   1.081       .  S
C55          C60   1.381       .  A
C55          C56   1.407       .  A
C55          N61   1.345       .  A
C56          C57   1.406       .  A
C56          H67   1.082       .  S
C57          C66   1.381       .  A
C57          C58   1.382       .  A
C58          C59   1.396       .  A
C58          N64   1.336       .  A
C59          C60   1.394       .  A
C59          H68   1.083       .  S
C60          C63   1.367       .  A
N61          C62   1.363       .  A
N61          H71   1.044       .  S
C62          C63   1.400       .  A
C63          H69   1.081       .  S
N64          C65   1.359       .  A
N64          H72   1.043       .  S
C65          C66   1.405       .  A
C66          H70   1.082       .  S
C73          C78   1.381       .  A
C73          C74   1.406       .  A
C73          N79   1.344       .  A
C74          C75   1.405       .  A
C74          H85   1.082       .  S
C75          C84   1.378       .  A
C75          C76   1.381       .  A
C76          C77   1.401   1_554  A
C76          N82   1.343       .  A
C77          C78   1.401   1_556  A
C77          H86   1.075       .  S
C78          C81   1.377   1_554  A
N79          C80   1.362       .  A
N79          H89   1.044       .  S
C80          C81   1.401   1_554  A
C81          H87   1.081       .  S
N82          C83   1.358       .  A
N82          H90   1.044   1_554  S
C83          C84   1.405       .  A
C84          H88   1.082       .  S
C91          C96   1.382       .  A
C91          C92   1.394       .  A
C91          N97   1.336       .  A
C92          C93   1.392       .  A
C92         H103   1.083       .  S
C93         C102   1.363       .  A
C93          C94   1.380       .  A
C94          C95   1.408       .  A
C94         N100   1.346       .  A
C95          C96   1.408       .  A
C95         H104   1.082       .  S
C96          C99   1.380       .  A
N97          C98   1.358       .  A
N97         H107   1.043       .  S
C98          C99   1.407       .  A
C99         H105   1.082       .  S
N100        C101   1.363       .  A
N100        H108   1.044       .  S
C101        C102   1.400       .  A
C102        H106   1.081       .  S
C109        C110   1.407       .  A
C109        C618   1.381   1_545  A
C109        N115   1.345       .  A
C110        C111   1.406       .  A
C110        H121   1.083       .  S
C111        C120   1.379       .  A
C111        C616   1.382   1_545  A
C112        C113   1.398       .  A
C112        C615   1.382       .  A
C112        N118   1.339       .  A
C113        C114   1.397       .  A
C113        H122   1.083       .  S
C114        C117   1.370       .  A
C114        C613   1.381       .  A
N115        C116   1.361   1_545  A
N115        H125   1.045       .  S
C116        C508   1.526       .  S
C116        C621   1.400       .  A
C117        C620   1.400       .  A
C117        H123   1.081       .  S
N118        C623   1.358       .  A
N118        H126   1.043       .  S
C119        C512   1.527       .  S
C119        C120   1.403   1_565  A
C119        N622   1.358       .  A
C120        H124   1.083       .  S
C127        C132   1.381       .  A
C127        C128   1.407       .  A
C127        N133   1.346       .  A
C128        C129   1.407       .  A
C128        H139   1.083       .  S
C129        C138   1.380       .  A
C129        C130   1.382       .  A
C130        C131   1.397       .  A
C130        N136   1.338       .  A
C131        C132   1.395       .  A
C131        H140   1.083       .  S
C132        C135   1.368       .  A
N133        C134   1.361       .  A
N133        H143   1.045       .  S
C134        C135   1.399       .  A
C135        H141   1.081       .  S
N136        C137   1.358       .  A
N136        H144   1.042       .  S
C137        C138   1.403       .  A
C138        H142   1.082       .  S
C145        C150   1.381       .  A
C145        C146   1.406       .  A
C145        N151   1.347       .  A
C146        C147   1.406       .  A
C146        H157   1.082       .  S
C147        C156   1.384       .  A
C147        C148   1.380       .  A
C148        C149   1.401       .  A
C148        N154   1.338       .  A
C149        C150   1.399       .  A
C149        H158   1.083       .  S
C150        C153   1.371       .  A
N151        C152   1.363       .  A
N151        H161   1.040       .  S
C152        C153   1.402       .  A
C153        H159   1.083       .  S
N154        C155   1.360       .  A
N154        H162   1.045       .  S
C155        C156   1.406       .  A
C156        H160   1.079       .  S
C163        C168   1.381       .  A
C163        C164   1.406       .  A
C163        N169   1.345       .  A
C164        C165   1.406       .  A
C164        H175   1.083       .  S
C165        C174   1.379       .  A
C165        C166   1.382       .  A
C166        C167   1.398       .  A
C166        N172   1.339       .  A
C167        C168   1.397       .  A
C167        H176   1.083       .  S
C168        C171   1.370       .  A
N169        C170   1.360       .  A
N169        H179   1.045       .  S
C170        C171   1.401       .  A
C171        H177   1.081       .  S
N172        C173   1.359       .  A
N172        H180   1.043       .  S
C173        C174   1.402       .  A
C174        H178   1.082       .  S
C181        C186   1.381       .  A
C181        C182   1.406       .  A
C181        N187   1.345       .  A
C182        C183   1.406       .  A
C182        H193   1.082       .  S
C183        C192   1.379       .  A
C183        C184   1.382       .  A
C184        C185   1.401       .  A
C184        N190   1.341       .  A
C185        C186   1.400       .  A
C185        H194   1.082       .  S
C186        C189   1.374       .  A
N187        C188   1.362       .  A
N187        H197   1.045       .  S
C188        C189   1.403       .  A
C189        H195   1.082       .  S
N190        C191   1.360       .  A
N190        H198   1.044       .  S
C191        C192   1.404       .  A
C192        H196   1.082       .  S
C199        C204   1.382       .  A
C199        C200   1.397       .  A
C199        N205   1.339       .  A
C200        C201   1.397       .  A
C200        H211   1.083       .  S
C201        C210   1.369       .  A
C201        C202   1.381       .  A
C202        C203   1.406       .  A
C202        N208   1.347       .  A
C203        C204   1.407       .  A
C203        H212   1.083       .  S
C204        C207   1.378       .  A
N205        C206   1.358       .  A
N205        H215   1.043       .  S
C206        C207   1.403       .  A
C207        H213   1.083       .  S
N208        C209   1.361       .  A
N208        H216   1.045       .  S
C209        C210   1.401       .  A
C210        H214   1.081       .  S
C217        C222   1.381       .  A
C217        C218   1.406       .  A
C217        N223   1.348       .  A
C218        C219   1.406       .  A
C218        H229   1.082       .  S
C219        C228   1.381       .  A
C219        C220   1.380       .  A
C220        C221   1.400       .  A
C220        N226   1.338       .  A
C221        C222   1.400       .  A
C221        H230   1.083       .  S
C222        C225   1.369       .  A
N223        C224   1.363       .  A
N223        H233   1.041       .  S
C224        C225   1.402       .  A
C225        H231   1.083       .  S
N226        C227   1.359       .  A
N226        H234   1.045       .  S
C227        C228   1.407       .  A
C228        H232   1.079       .  S
C235        C240   1.381       .  A
C235        C236   1.407       .  A
C235        N241   1.346       .  A
C236        C237   1.406       .  A
C236        H247   1.082       .  S
C237        C246   1.379       .  A
C237        C238   1.382       .  A
C238        C239   1.400       .  A
C238        N244   1.341       .  A
C239        C240   1.399       .  A
C239        H248   1.082       .  S
C240        C243   1.372       .  A
N241        C242   1.362       .  A
N241        H251   1.045       .  S
C242        C243   1.402       .  A
C243        H249   1.082       .  S
N244        C245   1.360       .  A
N244        H252   1.044       .  S
C245        C246   1.405       .  A
C246        H250   1.082       .  S
C253        C288   1.521       .  S
C253        C458   1.525       .  S
C253        C476   1.543       .  S
C253        C494   1.541       .  S
C254        C272   1.522       .  S
C254        C425   1.525       .  S
C254        C443   1.541       .  S
C254        C479   1.539       .  S
C255        C273   1.524       .  S
C255        C389   1.527       .  S
C255        C404   1.542       .  S
C255        C497   1.542       .  S
C256        C789   1.526       .  S
C256        C872   1.526       .  S
C256        C407   1.540       .  S
C256        C440   1.542       .  S
C257        C332   1.538       .  S
C257        C350   1.538       .  S
C257        C461   1.529       .  S
C258        C314   1.536       .  S
C258        C335   1.538       .  S
C258        C422   1.527       .  S
C259        C296   1.535       .  S
C259        C353   1.538       .  S
C259        C386   1.525       .  S
C260        C539   1.516       .  S
C260        C299   1.533       .  S
C260        C317   1.536       .  S
C260        C875   1.527       .  S
O261        V269   1.894       .  S
O261        C271   1.265   1_556  A
O262       V1277   1.896   1_455  S
O262        C272   1.266       .  A
O263        V269   1.901       .  S
O263        C273   1.262       .  A
O264       V1277   1.903   1_455  S
O264        C274   1.267   1_556  A
O265        V270   1.898       .  S
O265        C274   1.265   1_556  A
O266       V1278   1.898       .  S
O266        C273   1.266       .  A
O267        V270   1.898       .  S
O267        C272   1.262       .  A
O268       V1278   1.901       .  S
O268        C271   1.266   1_556  A
V269       O1270   1.896       .  S
V269       O1272   1.903       .  S
V269       V1278   2.082       .  T
V270       O1274   1.898   1_455  S
V270       O1276   1.901   1_455  S
V270       V1277   2.082   1_455  T
O275        V283   1.902       .  S
O275        C285   1.263       .  A
O276        V283   1.902       .  S
O276        C286   1.266   1_556  A
O277        V283   1.895       .  S
O277        C287   1.265   1_556  A
O278        V283   1.900       .  S
O278        C288   1.267       .  A
O279        V284   1.898       .  S
O279        C288   1.262       .  A
O280        V284   1.898       .  S
O280        C287   1.265   1_556  A
O281        V284   1.901       .  S
O281        C286   1.266   1_556  A
O282        V284   1.903       .  S
O282        C285   1.268       .  A
V283        V284   2.081       .  T
C285        C760   1.526   1_545  S
C287        C512   1.516   1_545  S
C289        C294   1.382       .  A
C289        C290   1.402       .  A
C289        N295   1.342       .  A
C290        C291   1.401       .  A
C290        H301   1.082       .  S
C291        C300   1.373       .  A
C291        C292   1.381       .  A
C292        C293   1.400       .  A
C292        N298   1.342       .  A
C293        C294   1.401       .  A
C293        H302   1.076       .  S
C294        C297   1.375       .  A
N295        C296   1.361       .  A
N295        H305   1.044       .  S
C296        C297   1.401       .  A
C297        H303   1.081       .  S
N298        C299   1.358       .  A
N298        H306   1.046       .  S
C299        C300   1.403       .  A
C300        H304   1.082       .  S
C307        C312   1.381       .  A
C307        C308   1.407       .  A
C307        N313   1.345       .  A
C308        C309   1.407       .  A
C308        H319   1.082       .  S
C309        C318   1.381       .  A
C309        C310   1.382       .  A
C310        C311   1.396       .  A
C310        N316   1.336       .  A
C311        C312   1.394       .  A
C311        H320   1.083       .  S
C312        C315   1.367       .  A
N313        C314   1.363       .  A
N313        H323   1.044       .  S
C314        C315   1.400       .  A
C315        H321   1.081       .  S
N316        C317   1.359       .  A
N316        H324   1.043       .  S
C317        C318   1.405       .  A
C318        H322   1.082       .  S
C325        C330   1.381       .  A
C325        C326   1.406       .  A
C325        N331   1.344       .  A
C326        C327   1.405       .  A
C326        H337   1.082       .  S
C327        C336   1.378       .  A
C327        C328   1.381       .  A
C328        C329   1.401       .  A
C328        N334   1.343       .  A
C329        C330   1.401       .  A
C329        H338   1.075       .  S
C330        C333   1.377       .  A
N331        C332   1.362       .  A
N331        H341   1.044       .  S
C332        C333   1.401       .  A
C333        H339   1.081       .  S
N334        C335   1.358       .  A
N334        H342   1.044       .  S
C335        C336   1.405       .  A
C336        H340   1.082       .  S
C343        C348   1.382       .  A
C343        C344   1.394       .  A
C343        N349   1.336       .  A
C344        C345   1.392       .  A
C344        H355   1.083       .  S
C345        C354   1.363       .  A
C345        C346   1.380       .  A
C346        C347   1.408       .  A
C346        N352   1.346       .  A
C347        C348   1.408       .  A
C347        H356   1.082       .  S
C348        C351   1.380       .  A
N349        C350   1.358       .  A
N349        H359   1.043       .  S
C350        C351   1.407       .  A
C351        H357   1.082       .  S
N352        C353   1.363       .  A
N352        H360   1.044       .  S
C353        C354   1.400       .  A
C354        H358   1.081       .  S
C361        C870   1.381   1_545  A
C361        C362   1.407       .  A
C361        N367   1.345       .  A
C362        C363   1.406       .  A
C362        H373   1.083       .  S
C363        C372   1.379       .  A
C363        C868   1.382   1_545  A
C364        C867   1.382       .  A
C364        C365   1.398       .  A
C364        N370   1.339       .  A
C365        C366   1.397       .  A
C365        H374   1.083       .  S
C366        C865   1.381       .  A
C366        C369   1.370       .  A
N367        C368   1.361   1_545  A
N367        H377   1.045       .  S
C368        C760   1.526       .  S
C368        C873   1.400       .  A
C369        C872   1.400       .  A
C369        H375   1.081       .  S
N370        C875   1.358       .  A
N370        H378   1.043       .  S
C371        C764   1.527       .  S
C371        C372   1.403   1_565  A
C371        N874   1.358       .  A
C372        H376   1.083       .  S
C379        C384   1.381       .  A
C379        C380   1.407       .  A
C379        N385   1.346       .  A
C380        C381   1.407       .  A
C380        H391   1.083       .  S
C381        C390   1.380       .  A
C381        C382   1.382       .  A
C382        C383   1.397       .  A
C382        N388   1.338       .  A
C383        C384   1.395       .  A
C383        H392   1.083       .  S
C384        C387   1.368       .  A
N385        C386   1.361       .  A
N385        H395   1.045       .  S
C386        C387   1.399       .  A
C387        H393   1.081       .  S
N388        C389   1.358       .  A
N388        H396   1.043       .  S
C389        C390   1.403       .  A
C390        H394   1.082       .  S
C397        C402   1.381       .  A
C397        C398   1.406       .  A
C397        N403   1.347       .  A
C398        C399   1.406       .  A
C398        H409   1.082       .  S
C399        C408   1.384       .  A
C399        C400   1.380       .  A
C400        C401   1.401       .  A
C400        N406   1.338       .  A
C401        C402   1.399       .  A
C401        H410   1.083       .  S
C402        C405   1.371       .  A
N403        C404   1.363       .  A
N403        H413   1.040       .  S
C404        C405   1.402       .  A
C405        H411   1.083       .  S
N406        C407   1.360       .  A
N406        H414   1.045       .  S
C407        C408   1.406       .  A
C408        H412   1.079       .  S
C415        C420   1.381       .  A
C415        C416   1.406       .  A
C415        N421   1.345       .  A
C416        C417   1.406       .  A
C416        H427   1.083       .  S
C417        C426   1.379       .  A
C417        C418   1.382       .  A
C418        C419   1.398       .  A
C418        N424   1.339       .  A
C419        C420   1.397       .  A
C419        H428   1.083       .  S
C420        C423   1.370       .  A
N421        C422   1.360       .  A
N421        H431   1.045       .  S
C422        C423   1.401       .  A
C423        H429   1.081       .  S
N424        C425   1.359       .  A
N424        H432   1.043       .  S
C425        C426   1.402       .  A
C426        H430   1.082       .  S
C433        C438   1.381       .  A
C433        C434   1.406       .  A
C433        N439   1.345       .  A
C434        C435   1.405       .  A
C434        H445   1.082       .  S
C435        C444   1.379       .  A
C435        C436   1.382       .  A
C436        C437   1.401       .  A
C436        N442   1.342       .  A
C437        C438   1.400       .  A
C437        H446   1.082       .  S
C438        C441   1.374       .  A
N439        C440   1.362       .  A
N439        H449   1.045       .  S
C440        C441   1.403       .  A
C441        H447   1.082       .  S
N442        C443   1.360       .  A
N442        H450   1.044       .  S
C443        C444   1.404       .  A
C444        H448   1.082       .  S
C451        C456   1.382       .  A
C451        C452   1.397       .  A
C451        N457   1.339       .  A
C452        C453   1.397       .  A
C452        H463   1.083       .  S
C453        C462   1.369       .  A
C453        C454   1.381       .  A
C454        C455   1.406       .  A
C454        N460   1.347       .  A
C455        C456   1.407       .  A
C455        H464   1.083       .  S
C456        C459   1.378       .  A
N457        C458   1.358       .  A
N457        H467   1.043       .  S
C458        C459   1.403       .  A
C459        H465   1.083       .  S
N460        C461   1.361       .  A
N460        H468   1.045       .  S
C461        C462   1.401       .  A
C462        H466   1.081       .  S
C469        C474   1.381       .  A
C469        C470   1.406       .  A
C469        N475   1.348       .  A
C470        C471   1.406       .  A
C470        H481   1.082       .  S
C471        C480   1.381       .  A
C471        C472   1.380       .  A
C472        C473   1.400       .  A
C472        N478   1.338       .  A
C473        C474   1.400       .  A
C473        H482   1.083       .  S
C474        C477   1.369       .  A
N475        C476   1.363       .  A
N475        H485   1.041       .  S
C476        C477   1.402       .  A
C477        H483   1.083       .  S
N478        C479   1.359       .  A
N478        H486   1.045       .  S
C479        C480   1.407       .  A
C480        H484   1.079       .  S
C487        C492   1.381       .  A
C487        C488   1.407       .  A
C487        N493   1.346       .  A
C488        C489   1.406       .  A
C488        H499   1.082       .  S
C489        C498   1.379       .  A
C489        C490   1.382       .  A
C490        C491   1.400       .  A
C490        N496   1.341       .  A
C491        C492   1.399       .  A
C491        H500   1.082       .  S
C492        C495   1.372       .  A
N493        C494   1.362       .  A
N493        H503   1.045       .  S
C494        C495   1.402       .  A
C495        H501   1.082       .  S
N496        C497   1.360       .  A
N496        H504   1.044       .  S
C497        C498   1.405       .  A
C498        H502   1.082       .  S
C505        C540   1.521       .  S
C505        C710   1.525       .  S
C505        C728   1.543       .  S
C505        C746   1.541       .  S
C506        C524   1.522       .  S
C506        C677   1.525       .  S
C506        C695   1.541       .  S
C506        C731   1.539       .  S
C507        C525   1.524       .  S
C507        C641   1.527       .  S
C507        C656   1.542       .  S
C507        C749   1.542       .  S
C508        C659   1.540       .  S
C508        C692   1.542       .  S
C509        C790   1.523       .  S
C509        C584   1.538       .  S
C509        C602   1.538       .  S
C509        C713   1.529       .  S
C510        C778   1.520       .  S
C510        C566   1.536       .  S
C510        C587   1.538       .  S
C510        C674   1.527       .  S
C511        C775   1.516       .  S
C511        C548   1.536       .  S
C511        C605   1.538       .  S
C511        C638   1.525       .  S
C512        C551   1.533       .  S
C512        C569   1.536       .  S
O513        V521   1.894       .  S
O513        C523   1.265       .  A
O514       V1529   1.896   1_455  S
O514        C524   1.266       .  A
O515        V521   1.901       .  S
O515        C525   1.262       .  A
O516       V1529   1.903   1_455  S
O516        C526   1.267       .  A
O517        V522   1.898       .  S
O517        C526   1.265       .  A
O518       V1530   1.898       .  S
O518        C525   1.266       .  A
O519        V522   1.898       .  S
O519        C524   1.262       .  A
O520       V1530   1.901       .  S
O520        C523   1.266       .  A
V521       O1522   1.896       .  S
V521       O1524   1.903       .  S
V521       V1530   2.082       .  T
V522       O1526   1.898   1_455  S
V522       O1528   1.901   1_455  S
V522       V1529   2.082   1_455  T
C523        C763   1.516       .  S
C526        C762   1.520       .  S
O527        V535   1.902       .  S
O527        C537   1.263       .  A
O528        V535   1.902       .  S
O528        C538   1.266       .  A
O529        V535   1.896       .  S
O529        C539   1.265       .  A
O530        V535   1.900       .  S
O530        C540   1.267       .  A
O531        V536   1.898       .  S
O531        C540   1.262       .  A
O532        V536   1.898       .  S
O532        C539   1.265       .  A
O533        V536   1.901       .  S
O533        C538   1.266       .  A
O534        V536   1.903       .  S
O534        C537   1.268       .  A
V535        V536   2.081       .  T
C538        C761   1.523       .  S
C541        C546   1.382       .  A
C541        C542   1.402       .  A
C541        N547   1.342       .  A
C542        C543   1.401       .  A
C542        H553   1.082       .  S
C543        C552   1.373       .  A
C543        C544   1.381       .  A
C544        C545   1.400   1_554  A
C544        N550   1.342   1_554  A
C545        C546   1.401   1_556  A
C545        H554   1.076       .  S
C546        C549   1.375   1_554  A
N547        C548   1.361       .  A
N547        H557   1.044       .  S
C548        C549   1.401   1_554  A
C549        H555   1.081       .  S
N550        C551   1.358   1_556  A
N550        H558   1.046       .  S
C551        C552   1.403       .  A
C552        H556   1.081       .  S
C559        C564   1.381       .  A
C559        C560   1.407       .  A
C559        N565   1.345       .  A
C560        C561   1.407       .  A
C560        H571   1.082       .  S
C561        C570   1.381       .  A
C561        C562   1.382       .  A
C562        C563   1.396       .  A
C562        N568   1.336       .  A
C563        C564   1.394       .  A
C563        H572   1.083       .  S
C564        C567   1.367       .  A
N565        C566   1.363       .  A
N565        H575   1.044       .  S
C566        C567   1.400       .  A
C567        H573   1.081       .  S
N568        C569   1.359       .  A
N568        H576   1.043       .  S
C569        C570   1.405       .  A
C570        H574   1.082       .  S
C577        C582   1.381       .  A
C577        C578   1.406       .  A
C577        N583   1.344       .  A
C578        C579   1.405       .  A
C578        H589   1.082       .  S
C579        C588   1.377       .  A
C579        C580   1.381       .  A
C580        C581   1.401   1_554  A
C580        N586   1.343       .  A
C581        C582   1.401   1_556  A
C581        H590   1.075       .  S
C582        C585   1.377   1_554  A
N583        C584   1.362       .  A
N583        H593   1.044       .  S
C584        C585   1.401   1_554  A
C585        H591   1.081       .  S
N586        C587   1.358       .  A
N586        H594   1.044   1_554  S
C587        C588   1.405       .  A
C588        H592   1.082       .  S
C595        C600   1.382       .  A
C595        C596   1.394       .  A
C595        N601   1.336       .  A
C596        C597   1.392       .  A
C596        H607   1.083       .  S
C597        C606   1.363       .  A
C597        C598   1.380       .  A
C598        C599   1.408       .  A
C598        N604   1.346       .  A
C599        C600   1.408       .  A
C599        H608   1.082       .  S
C600        C603   1.380       .  A
N601        C602   1.358       .  A
N601        H611   1.043       .  S
C602        C603   1.407       .  A
C603        H609   1.082       .  S
N604        C605   1.363       .  A
N604        H612   1.044       .  S
C605        C606   1.400       .  A
C606        H610   1.081       .  S
C613        C614   1.407       .  A
C613        N619   1.345       .  A
C614        C615   1.406       .  A
C614        H625   1.083       .  S
C615        C624   1.379       .  A
C616        C617   1.398       .  A
C616        N622   1.339       .  A
C617        C618   1.397       .  A
C617        H626   1.083       .  S
C618        C621   1.370       .  A
N619        C620   1.361       .  A
N619        H629   1.045       .  S
C621        H627   1.081       .  S
N622        H630   1.043       .  S
C623        C624   1.403       .  A
C624        H628   1.083       .  S
C631        C636   1.381       .  A
C631        C632   1.407       .  A
C631        N637   1.346       .  A
C632        C633   1.407       .  A
C632        H643   1.083       .  S
C633        C642   1.380       .  A
C633        C634   1.382       .  A
C634        C635   1.397       .  A
C634        N640   1.338       .  A
C635        C636   1.395       .  A
C635        H644   1.083       .  S
C636        C639   1.368       .  A
N637        C638   1.361       .  A
N637        H647   1.045       .  S
C638        C639   1.399       .  A
C639        H645   1.081       .  S
N640        C641   1.358       .  A
N640        H648   1.042       .  S
C641        C642   1.403       .  A
C642        H646   1.082       .  S
C649        C654   1.381       .  A
C649        C650   1.406       .  A
C649        N655   1.347       .  A
C650        C651   1.406       .  A
C650        H661   1.082       .  S
C651        C660   1.384       .  A
C651        C652   1.380       .  A
C652        C653   1.401       .  A
C652        N658   1.338       .  A
C653        C654   1.399       .  A
C653        H662   1.083       .  S
C654        C657   1.371       .  A
N655        C656   1.363       .  A
N655        H665   1.040       .  S
C656        C657   1.402       .  A
C657        H663   1.083       .  S
N658        C659   1.360       .  A
N658        H666   1.045       .  S
C659        C660   1.406       .  A
C660        H664   1.079       .  S
C667        C672   1.381       .  A
C667        C668   1.406       .  A
C667        N673   1.345       .  A
C668        C669   1.405       .  A
C668        H679   1.083       .  S
C669        C678   1.379       .  A
C669        C670   1.382       .  A
C670        C671   1.398       .  A
C670        N676   1.339       .  A
C671        C672   1.397       .  A
C671        H680   1.083       .  S
C672        C675   1.370       .  A
N673        C674   1.360       .  A
N673        H683   1.045       .  S
C674        C675   1.401       .  A
C675        H681   1.081       .  S
N676        C677   1.359       .  A
N676        H684   1.043       .  S
C677        C678   1.402       .  A
C678        H682   1.082       .  S
C685        C690   1.381       .  A
C685        C686   1.406       .  A
C685        N691   1.345       .  A
C686        C687   1.406       .  A
C686        H697   1.082       .  S
C687        C696   1.379       .  A
C687        C688   1.382       .  A
C688        C689   1.401       .  A
C688        N694   1.342       .  A
C689        C690   1.400       .  A
C689        H698   1.082       .  S
C690        C693   1.374       .  A
N691        C692   1.362       .  A
N691        H701   1.045       .  S
C692        C693   1.403       .  A
C693        H699   1.082       .  S
N694        C695   1.360       .  A
N694        H702   1.044       .  S
C695        C696   1.404       .  A
C696        H700   1.082       .  S
C703        C708   1.382       .  A
C703        C704   1.397       .  A
C703        N709   1.339       .  A
C704        C705   1.397       .  A
C704        H715   1.083       .  S
C705        C714   1.369       .  A
C705        C706   1.381       .  A
C706        C707   1.406       .  A
C706        N712   1.347       .  A
C707        C708   1.407       .  A
C707        H716   1.083       .  S
C708        C711   1.378       .  A
N709        C710   1.358       .  A
N709        H719   1.043       .  S
C710        C711   1.403       .  A
C711        H717   1.083       .  S
N712        C713   1.361       .  A
N712        H720   1.045       .  S
C713        C714   1.401       .  A
C714        H718   1.081       .  S
C721        C726   1.381       .  A
C721        C722   1.406       .  A
C721        N727   1.348       .  A
C722        C723   1.406       .  A
C722        H733   1.082       .  S
C723        C732   1.381       .  A
C723        C724   1.380       .  A
C724        C725   1.400       .  A
C724        N730   1.338       .  A
C725        C726   1.400       .  A
C725        H734   1.083       .  S
C726        C729   1.369       .  A
N727        C728   1.363       .  A
N727        H737   1.041       .  S
C728        C729   1.402       .  A
C729        H735   1.083       .  S
N730        C731   1.359       .  A
N730        H738   1.045       .  S
C731        C732   1.407       .  A
C732        H736   1.079       .  S
C739        C744   1.381       .  A
C739        C740   1.407       .  A
C739        N745   1.346       .  A
C740        C741   1.406       .  A
C740        H751   1.082       .  S
C741        C750   1.379       .  A
C741        C742   1.382       .  A
C742        C743   1.400       .  A
C742        N748   1.341       .  A
C743        C744   1.399       .  A
C743        H752   1.082       .  S
C744        C747   1.372       .  A
N745        C746   1.362       .  A
N745        H755   1.045       .  S
C746        C747   1.402       .  A
C747        H753   1.082       .  S
N748        C749   1.360       .  A
N748        H756   1.044       .  S
C749        C750   1.405       .  A
C750        H754   1.082       .  S
C757        C792   1.521       .  S
C757        C962   1.525       .  S
C757        C980   1.543       .  S
C757        C998   1.541       .  S
C758        C776   1.522       .  S
C758        C929   1.525       .  S
C758        C947   1.541       .  S
C758        C983   1.539       .  S
C759        C777   1.524       .  S
C759        C893   1.527       .  S
C759        C908   1.542       .  S
C759       C1001   1.542       .  S
C760        C911   1.540       .  S
C760        C944   1.542       .  S
C761        C836   1.538       .  S
C761        C854   1.538       .  S
C761        C965   1.529       .  S
C762        C818   1.536       .  S
C762        C839   1.538       .  S
C762        C926   1.527       .  S
C763        C800   1.535       .  S
C763        C857   1.538       .  S
C763        C890   1.525       .  S
C764        C803   1.533       .  S
C764        C821   1.536       .  S
O765        V773   1.894       .  S
O765        C775   1.265   1_556  A
O766       V1781   1.896   1_455  S
O766        C776   1.266       .  A
O767        V773   1.901       .  S
O767        C777   1.262       .  A
O768       V1781   1.903   1_455  S
O768        C778   1.267   1_556  A
O769        V774   1.898       .  S
O769        C778   1.265   1_556  A
O770       V1782   1.898       .  S
O770        C777   1.266       .  A
O771        V774   1.898       .  S
O771        C776   1.262       .  A
O772       V1782   1.901       .  S
O772        C775   1.266   1_556  A
V773       O1774   1.896       .  S
V773       O1776   1.903       .  S
V773       V1782   2.082       .  T
V774       O1778   1.898   1_455  S
V774       O1780   1.901   1_455  S
V774       V1781   2.082   1_455  T
O779        V787   1.902       .  S
O779        C789   1.263       .  A
O780        V787   1.902       .  S
O780        C790   1.266   1_556  A
O781        V787   1.895       .  S
O781        C791   1.265   1_556  A
O782        V787   1.900       .  S
O782        C792   1.267       .  A
O783        V788   1.898       .  S
O783        C792   1.262       .  A
O784        V788   1.898       .  S
O784        C791   1.265   1_556  A
O785        V788   1.901       .  S
O785        C790   1.266   1_556  A
O786        V788   1.903       .  S
O786        C789   1.268       .  A
V787        V788   2.081       .  T
C793        C798   1.382       .  A
C793        C794   1.402       .  A
C793        N799   1.342       .  A
C794        C795   1.401       .  A
C794        H805   1.082       .  S
C795        C804   1.373       .  A
C795        C796   1.381       .  A
C796        C797   1.400       .  A
C796        N802   1.342       .  A
C797        C798   1.401       .  A
C797        H806   1.076       .  S
C798        C801   1.375       .  A
N799        C800   1.361       .  A
N799        H809   1.044       .  S
C800        C801   1.401       .  A
C801        H807   1.081       .  S
N802        C803   1.358       .  A
N802        H810   1.046       .  S
C803        C804   1.403       .  A
C804        H808   1.081       .  S
C811        C816   1.381       .  A
C811        C812   1.407       .  A
C811        N817   1.345       .  A
C812        C813   1.406       .  A
C812        H823   1.082       .  S
C813        C822   1.381       .  A
C813        C814   1.382       .  A
C814        C815   1.396       .  A
C814        N820   1.336       .  A
C815        C816   1.394       .  A
C815        H824   1.083       .  S
C816        C819   1.367       .  A
N817        C818   1.363       .  A
N817        H827   1.044       .  S
C818        C819   1.400       .  A
C819        H825   1.081       .  S
N820        C821   1.359       .  A
N820        H828   1.043       .  S
C821        C822   1.405       .  A
C822        H826   1.082       .  S
C829        C834   1.381       .  A
C829        C830   1.406       .  A
C829        N835   1.344       .  A
C830        C831   1.405       .  A
C830        H841   1.082       .  S
C831        C840   1.378       .  A
C831        C832   1.381       .  A
C832        C833   1.401       .  A
C832        N838   1.343       .  A
C833        C834   1.401       .  A
C833        H842   1.075       .  S
C834        C837   1.377       .  A
N835        C836   1.362       .  A
N835        H845   1.044       .  S
C836        C837   1.401       .  A
C837        H843   1.081       .  S
N838        C839   1.358       .  A
N838        H846   1.044       .  S
C839        C840   1.405       .  A
C840        H844   1.082       .  S
C847        C852   1.382       .  A
C847        C848   1.394       .  A
C847        N853   1.336       .  A
C848        C849   1.392       .  A
C848        H859   1.083       .  S
C849        C858   1.363       .  A
C849        C850   1.380       .  A
C850        C851   1.408       .  A
C850        N856   1.346       .  A
C851        C852   1.408       .  A
C851        H860   1.082       .  S
C852        C855   1.380       .  A
N853        C854   1.358       .  A
N853        H863   1.043       .  S
C854        C855   1.407       .  A
C855        H861   1.082       .  S
N856        C857   1.363       .  A
N856        H864   1.044       .  S
C857        C858   1.400       .  A
C858        H862   1.081       .  S
C865        C866   1.407       .  A
C865        N871   1.345       .  A
C866        C867   1.406       .  A
C866        H877   1.083       .  S
C867        C876   1.379       .  A
C868        C869   1.398       .  A
C868        N874   1.339       .  A
C869        C870   1.397       .  A
C869        H878   1.083       .  S
C870        C873   1.370       .  A
N871        C872   1.361       .  A
N871        H881   1.045       .  S
C873        H879   1.081       .  S
N874        H882   1.043       .  S
C875        C876   1.403       .  A
C876        H880   1.083       .  S
C883        C888   1.381       .  A
C883        C884   1.407       .  A
C883        N889   1.346       .  A
C884        C885   1.407       .  A
C884        H895   1.083       .  S
C885        C894   1.380       .  A
C885        C886   1.382       .  A
C886        C887   1.397       .  A
C886        N892   1.338       .  A
C887        C888   1.395       .  A
C887        H896   1.083       .  S
C888        C891   1.368       .  A
N889        C890   1.361       .  A
N889        H899   1.045       .  S
C890        C891   1.399       .  A
C891        H897   1.081       .  S
N892        C893   1.358       .  A
N892        H900   1.043       .  S
C893        C894   1.403       .  A
C894        H898   1.082       .  S
C901        C906   1.381       .  A
C901        C902   1.406       .  A
C901        N907   1.347       .  A
C902        C903   1.406       .  A
C902        H913   1.082       .  S
C903        C912   1.384       .  A
C903        C904   1.380       .  A
C904        C905   1.401       .  A
C904        N910   1.338       .  A
C905        C906   1.399       .  A
C905        H914   1.083       .  S
C906        C909   1.371       .  A
N907        C908   1.363       .  A
N907        H917   1.040       .  S
C908        C909   1.402       .  A
C909        H915   1.083       .  S
N910        C911   1.360       .  A
N910        H918   1.045       .  S
C911        C912   1.406       .  A
C912        H916   1.079       .  S
C919        C924   1.381       .  A
C919        C920   1.406       .  A
C919        N925   1.345       .  A
C920        C921   1.406       .  A
C920        H931   1.083       .  S
C921        C930   1.379       .  A
C921        C922   1.382       .  A
C922        C923   1.398       .  A
C922        N928   1.339       .  A
C923        C924   1.397       .  A
C923        H932   1.083       .  S
C924        C927   1.370       .  A
N925        C926   1.360       .  A
N925        H935   1.045       .  S
C926        C927   1.401       .  A
C927        H933   1.081       .  S
N928        C929   1.359       .  A
N928        H936   1.043       .  S
C929        C930   1.402       .  A
C930        H934   1.082       .  S
C937        C942   1.381       .  A
C937        C938   1.406       .  A
C937        N943   1.345       .  A
C938        C939   1.405       .  A
C938        H949   1.082       .  S
C939        C948   1.379       .  A
C939        C940   1.382       .  A
C940        C941   1.401       .  A
C940        N946   1.342       .  A
C941        C942   1.400       .  A
C941        H950   1.082       .  S
C942        C945   1.374       .  A
N943        C944   1.362       .  A
N943        H953   1.045       .  S
C944        C945   1.403       .  A
C945        H951   1.082       .  S
N946        C947   1.360       .  A
N946        H954   1.044       .  S
C947        C948   1.404       .  A
C948        H952   1.082       .  S
C955        C960   1.382       .  A
C955        C956   1.397       .  A
C955        N961   1.339       .  A
C956        C957   1.397       .  A
C956        H967   1.083       .  S
C957        C966   1.369       .  A
C957        C958   1.381       .  A
C958        C959   1.406       .  A
C958        N964   1.347       .  A
C959        C960   1.407       .  A
C959        H968   1.083       .  S
C960        C963   1.378       .  A
N961        C962   1.358       .  A
N961        H971   1.043       .  S
C962        C963   1.403       .  A
C963        H969   1.083       .  S
N964        C965   1.361       .  A
N964        H972   1.045       .  S
C965        C966   1.401       .  A
C966        H970   1.081       .  S
C973        C978   1.381       .  A
C973        C974   1.406       .  A
C973        N979   1.348       .  A
C974        C975   1.406       .  A
C974        H985   1.082       .  S
C975        C984   1.381       .  A
C975        C976   1.380       .  A
C976        C977   1.400       .  A
C976        N982   1.338       .  A
C977        C978   1.400       .  A
C977        H986   1.083       .  S
C978        C981   1.369       .  A
N979        C980   1.363       .  A
N979        H989   1.041       .  S
C980        C981   1.402       .  A
C981        H987   1.083       .  S
N982        C983   1.359       .  A
N982        H990   1.045       .  S
C983        C984   1.407       .  A
C984        H988   1.079       .  S
C991        C996   1.381       .  A
C991        C992   1.407       .  A
C991        N997   1.346       .  A
C992        C993   1.406       .  A
C992       H1003   1.082       .  S
C993       C1002   1.379       .  A
C993        C994   1.382       .  A
C994        C995   1.400       .  A
C994       N1000   1.341       .  A
C995        C996   1.399       .  A
C995       H1004   1.082       .  S
C996        C999   1.372       .  A
N997        C998   1.362       .  A
N997       H1007   1.045       .  S
C998        C999   1.402       .  A
C999       H1005   1.082       .  S
N1000      C1001   1.360       .  A
N1000      H1008   1.044       .  S
C1001      C1002   1.405       .  A
C1002      H1006   1.082       .  S
C1009      C1044   1.521       .  S
C1009      C1214   1.525       .  S
C1009      C1232   1.543       .  S
C1009      C1250   1.541       .  S
C1010      C1028   1.522       .  S
C1010      C1181   1.525       .  S
C1010      C1199   1.541       .  S
C1010      C1235   1.539       .  S
C1011      C1029   1.524       .  S
C1011      C1145   1.527       .  S
C1011      C1160   1.542       .  S
C1011      C1253   1.542       .  S
C1012      C1545   1.526       .  S
C1012      C1628   1.526       .  S
C1012      C1163   1.540       .  S
C1012      C1196   1.542       .  S
C1013      C1294   1.523       .  S
C1013      C1088   1.538       .  S
C1013      C1106   1.538       .  S
C1013      C1217   1.529       .  S
C1014      C1282   1.520       .  S
C1014      C1070   1.536       .  S
C1014      C1091   1.538       .  S
C1014      C1178   1.527       .  S
C1015      C1279   1.516       .  S
C1015      C1052   1.535       .  S
C1015      C1109   1.538       .  S
C1015      C1142   1.525       .  S
C1016      C1799   1.516       .  S
C1016      C1055   1.533       .  S
C1016      C1073   1.536       .  S
C1016      C1631   1.527       .  S
O1017      V1025   1.894       .  S
O1017      C1027   1.265       .  A
O1018      C1028   1.266       .  A
O1019      V1025   1.901       .  S
O1019      C1029   1.262       .  A
O1020      C1030   1.267       .  A
O1021      V1026   1.898       .  S
O1021      C1030   1.265       .  A
O1022      C1029   1.266       .  A
O1023      V1026   1.898       .  S
O1023      C1028   1.262       .  A
O1024      C1027   1.266       .  A
C1027      C1267   1.516       .  S
C1030      C1266   1.520       .  S
O1031      V1039   1.902       .  S
O1031      C1041   1.263       .  A
O1032      V1039   1.902       .  S
O1032      C1042   1.266       .  A
O1033      V1039   1.895       .  S
O1033      C1043   1.265       .  A
O1034      V1039   1.900       .  S
O1034      C1044   1.267       .  A
O1035      V1040   1.898       .  S
O1035      C1044   1.262       .  A
O1036      V1040   1.898       .  S
O1036      C1043   1.265       .  A
O1037      V1040   1.901       .  S
O1037      C1042   1.266       .  A
O1038      V1040   1.903       .  S
O1038      C1041   1.268       .  A
V1039      V1040   2.081       .  T
C1041      C1516   1.526   1_545  S
C1042      C1265   1.523       .  S
C1043      C1772   1.516   1_545  S
C1045      C1050   1.382       .  A
C1045      C1046   1.402       .  A
C1045      N1051   1.342       .  A
C1046      C1047   1.401       .  A
C1046      H1057   1.082       .  S
C1047      C1056   1.373       .  A
C1047      C1048   1.381       .  A
C1048      C1049   1.400   1_554  A
C1048      N1054   1.342   1_554  A
C1049      C1050   1.401   1_556  A
C1049      H1058   1.076       .  S
C1050      C1053   1.375   1_554  A
N1051      C1052   1.361       .  A
N1051      H1061   1.044       .  S
C1052      C1053   1.401   1_554  A
C1053      H1059   1.081       .  S
N1054      C1055   1.358   1_556  A
N1054      H1062   1.046       .  S
C1055      C1056   1.403       .  A
C1056      H1060   1.081       .  S
C1063      C1068   1.381       .  A
C1063      C1064   1.407       .  A
C1063      N1069   1.345       .  A
C1064      C1065   1.406       .  A
C1064      H1075   1.082       .  S
C1065      C1074   1.381       .  A
C1065      C1066   1.382       .  A
C1066      C1067   1.396       .  A
C1066      N1072   1.336       .  A
C1067      C1068   1.394       .  A
C1067      H1076   1.083       .  S
C1068      C1071   1.367       .  A
N1069      C1070   1.363       .  A
N1069      H1079   1.044       .  S
C1070      C1071   1.400       .  A
C1071      H1077   1.081       .  S
N1072      C1073   1.359       .  A
N1072      H1080   1.043       .  S
C1073      C1074   1.405       .  A
C1074      H1078   1.082       .  S
C1081      C1086   1.381       .  A
C1081      C1082   1.406       .  A
C1081      N1087   1.344       .  A
C1082      C1083   1.405       .  A
C1082      H1093   1.082       .  S
C1083      C1092   1.378       .  A
C1083      C1084   1.381       .  A
C1084      C1085   1.401   1_554  A
C1084      N1090   1.343       .  A
C1085      C1086   1.401   1_556  A
C1085      H1094   1.075       .  S
C1086      C1089   1.377   1_554  A
N1087      C1088   1.362       .  A
N1087      H1097   1.044       .  S
C1088      C1089   1.401   1_554  A
C1089      H1095   1.081       .  S
N1090      C1091   1.358       .  A
N1090      H1098   1.044   1_554  S
C1091      C1092   1.405       .  A
C1092      H1096   1.082       .  S
C1099      C1104   1.382       .  A
C1099      C1100   1.394       .  A
C1099      N1105   1.336       .  A
C1100      C1101   1.392       .  A
C1100      H1111   1.083       .  S
C1101      C1110   1.363       .  A
C1101      C1102   1.380       .  A
C1102      C1103   1.408       .  A
C1102      N1108   1.346       .  A
C1103      C1104   1.408       .  A
C1103      H1112   1.082       .  S
C1104      C1107   1.380       .  A
N1105      C1106   1.358       .  A
N1105      H1115   1.043       .  S
C1106      C1107   1.407       .  A
C1107      H1113   1.082       .  S
N1108      C1109   1.363       .  A
N1108      H1116   1.044       .  S
C1109      C1110   1.400       .  A
C1110      H1114   1.081       .  S
C1117      C1626   1.381   1_545  A
C1117      C1118   1.407       .  A
C1117      N1123   1.345       .  A
C1118      C1119   1.406       .  A
C1118      H1129   1.083       .  S
C1119      C1128   1.379       .  A
C1119      C1624   1.382   1_545  A
C1120      C1623   1.382       .  A
C1120      C1121   1.398       .  A
C1120      N1126   1.339       .  A
C1121      C1122   1.397       .  A
C1121      H1130   1.083       .  S
C1122      C1621   1.381       .  A
C1122      C1125   1.370       .  A
N1123      C1124   1.361   1_545  A
N1123      H1133   1.045       .  S
C1124      C1516   1.526       .  S
C1124      C1629   1.400       .  A
C1125      C1628   1.400       .  A
C1125      H1131   1.081       .  S
N1126      C1631   1.358       .  A
N1126      H1134   1.043       .  S
C1127      C1520   1.527       .  S
C1127      C1128   1.403   1_565  A
C1127      N1630   1.358       .  A
C1128      H1132   1.083       .  S
C1135      C1140   1.381       .  A
C1135      C1136   1.407       .  A
C1135      N1141   1.346       .  A
C1136      C1137   1.407       .  A
C1136      H1147   1.083       .  S
C1137      C1146   1.380       .  A
C1137      C1138   1.382       .  A
C1138      C1139   1.397       .  A
C1138      N1144   1.338       .  A
C1139      C1140   1.395       .  A
C1139      H1148   1.083       .  S
C1140      C1143   1.368       .  A
N1141      C1142   1.361       .  A
N1141      H1151   1.045       .  S
C1142      C1143   1.399       .  A
C1143      H1149   1.081       .  S
N1144      C1145   1.358       .  A
N1144      H1152   1.042       .  S
C1145      C1146   1.403       .  A
C1146      H1150   1.082       .  S
C1153      C1158   1.381       .  A
C1153      C1154   1.406       .  A
C1153      N1159   1.347       .  A
C1154      C1155   1.406       .  A
C1154      H1165   1.082       .  S
C1155      C1164   1.384       .  A
C1155      C1156   1.380       .  A
C1156      C1157   1.401       .  A
C1156      N1162   1.338       .  A
C1157      C1158   1.399       .  A
C1157      H1166   1.083       .  S
C1158      C1161   1.371       .  A
N1159      C1160   1.363       .  A
N1159      H1169   1.040       .  S
C1160      C1161   1.402       .  A
C1161      H1167   1.083       .  S
N1162      C1163   1.360       .  A
N1162      H1170   1.045       .  S
C1163      C1164   1.406       .  A
C1164      H1168   1.079       .  S
C1171      C1176   1.381       .  A
C1171      C1172   1.406       .  A
C1171      N1177   1.345       .  A
C1172      C1173   1.406       .  A
C1172      H1183   1.083       .  S
C1173      C1182   1.379       .  A
C1173      C1174   1.382       .  A
C1174      C1175   1.398       .  A
C1174      N1180   1.339       .  A
C1175      C1176   1.397       .  A
C1175      H1184   1.083       .  S
C1176      C1179   1.370       .  A
N1177      C1178   1.360       .  A
N1177      H1187   1.045       .  S
C1178      C1179   1.401       .  A
C1179      H1185   1.081       .  S
N1180      C1181   1.359       .  A
N1180      H1188   1.043       .  S
C1181      C1182   1.402       .  A
C1182      H1186   1.082       .  S
C1189      C1194   1.381       .  A
C1189      C1190   1.406       .  A
C1189      N1195   1.345       .  A
C1190      C1191   1.406       .  A
C1190      H1201   1.082       .  S
C1191      C1200   1.379       .  A
C1191      C1192   1.382       .  A
C1192      C1193   1.401       .  A
C1192      N1198   1.341       .  A
C1193      C1194   1.400       .  A
C1193      H1202   1.082       .  S
C1194      C1197   1.374       .  A
N1195      C1196   1.362       .  A
N1195      H1205   1.045       .  S
C1196      C1197   1.403       .  A
C1197      H1203   1.082       .  S
N1198      C1199   1.360       .  A
N1198      H1206   1.044       .  S
C1199      C1200   1.404       .  A
C1200      H1204   1.082       .  S
C1207      C1212   1.382       .  A
C1207      C1208   1.397       .  A
C1207      N1213   1.339       .  A
C1208      C1209   1.397       .  A
C1208      H1219   1.083       .  S
C1209      C1218   1.369       .  A
C1209      C1210   1.381       .  A
C1210      C1211   1.406       .  A
C1210      N1216   1.347       .  A
C1211      C1212   1.407       .  A
C1211      H1220   1.083       .  S
C1212      C1215   1.378       .  A
N1213      C1214   1.358       .  A
N1213      H1223   1.043       .  S
C1214      C1215   1.403       .  A
C1215      H1221   1.083       .  S
N1216      C1217   1.361       .  A
N1216      H1224   1.045       .  S
C1217      C1218   1.401       .  A
C1218      H1222   1.081       .  S
C1225      C1230   1.381       .  A
C1225      C1226   1.406       .  A
C1225      N1231   1.348       .  A
C1226      C1227   1.406       .  A
C1226      H1237   1.082       .  S
C1227      C1236   1.381       .  A
C1227      C1228   1.380       .  A
C1228      C1229   1.400       .  A
C1228      N1234   1.338       .  A
C1229      C1230   1.400       .  A
C1229      H1238   1.083       .  S
C1230      C1233   1.369       .  A
N1231      C1232   1.363       .  A
N1231      H1241   1.041       .  S
C1232      C1233   1.402       .  A
C1233      H1239   1.083       .  S
N1234      C1235   1.359       .  A
N1234      H1242   1.045       .  S
C1235      C1236   1.407       .  A
C1236      H1240   1.079       .  S
C1243      C1248   1.381       .  A
C1243      C1244   1.407       .  A
C1243      N1249   1.346       .  A
C1244      C1245   1.406       .  A
C1244      H1255   1.082       .  S
C1245      C1254   1.379       .  A
C1245      C1246   1.382       .  A
C1246      C1247   1.400       .  A
C1246      N1252   1.341       .  A
C1247      C1248   1.399       .  A
C1247      H1256   1.082       .  S
C1248      C1251   1.372       .  A
N1249      C1250   1.362       .  A
N1249      H1259   1.045       .  S
C1250      C1251   1.402       .  A
C1251      H1257   1.082       .  S
N1252      C1253   1.360       .  A
N1252      H1260   1.044       .  S
C1253      C1254   1.405       .  A
C1254      H1258   1.082       .  S
C1261      C1296   1.521       .  S
C1261      C1466   1.525       .  S
C1261      C1484   1.543       .  S
C1261      C1502   1.541       .  S
C1262      C1280   1.522       .  S
C1262      C1433   1.525       .  S
C1262      C1451   1.541       .  S
C1262      C1487   1.539       .  S
C1263      C1281   1.524       .  S
C1263      C1397   1.527       .  S
C1263      C1412   1.542       .  S
C1263      C1505   1.542       .  S
C1264      C1797   1.526       .  S
C1264      C1880   1.526       .  S
C1264      C1415   1.540       .  S
C1264      C1448   1.542       .  S
C1265      C1340   1.538       .  S
C1265      C1358   1.538       .  S
C1265      C1469   1.529       .  S
C1266      C1322   1.536       .  S
C1266      C1343   1.538       .  S
C1266      C1430   1.527       .  S
C1267      C1304   1.535       .  S
C1267      C1361   1.538       .  S
C1267      C1394   1.525       .  S
C1268      C1547   1.516       .  S
C1268      C1307   1.533       .  S
C1268      C1325   1.536       .  S
C1268      C1883   1.527       .  S
O1269      V1277   1.894       .  S
O1269      C1279   1.265   1_556  A
O1270      C1280   1.266       .  A
O1271      V1277   1.901       .  S
O1271      C1281   1.262       .  A
O1272      C1282   1.267   1_556  A
O1273      V1278   1.898       .  S
O1273      C1282   1.265   1_556  A
O1274      C1281   1.266       .  A
O1275      V1278   1.898       .  S
O1275      C1280   1.262       .  A
O1276      C1279   1.266   1_556  A
O1283      V1291   1.902       .  S
O1283      C1293   1.263       .  A
O1284      V1291   1.902       .  S
O1284      C1294   1.266   1_556  A
O1285      V1291   1.895       .  S
O1285      C1295   1.265   1_556  A
O1286      V1291   1.900       .  S
O1286      C1296   1.267       .  A
O1287      V1292   1.898       .  S
O1287      C1296   1.262       .  A
O1288      V1292   1.898       .  S
O1288      C1295   1.265   1_556  A
O1289      V1292   1.901       .  S
O1289      C1294   1.266   1_556  A
O1290      V1292   1.903       .  S
O1290      C1293   1.268       .  A
V1291      V1292   2.081       .  T
C1293      C1768   1.526   1_545  S
C1295      C1520   1.516   1_545  S
C1297      C1302   1.382       .  A
C1297      C1298   1.402       .  A
C1297      N1303   1.342       .  A
C1298      C1299   1.401       .  A
C1298      H1309   1.082       .  S
C1299      C1308   1.373       .  A
C1299      C1300   1.381       .  A
C1300      C1301   1.400       .  A
C1300      N1306   1.342       .  A
C1301      C1302   1.401       .  A
C1301      H1310   1.076       .  S
C1302      C1305   1.375       .  A
N1303      C1304   1.361       .  A
N1303      H1313   1.044       .  S
C1304      C1305   1.401       .  A
C1305      H1311   1.081       .  S
N1306      C1307   1.358       .  A
N1306      H1314   1.046       .  S
C1307      C1308   1.403       .  A
C1308      H1312   1.082       .  S
C1315      C1320   1.381       .  A
C1315      C1316   1.407       .  A
C1315      N1321   1.345       .  A
C1316      C1317   1.407       .  A
C1316      H1327   1.082       .  S
C1317      C1326   1.381       .  A
C1317      C1318   1.382       .  A
C1318      C1319   1.396       .  A
C1318      N1324   1.336       .  A
C1319      C1320   1.394       .  A
C1319      H1328   1.083       .  S
C1320      C1323   1.367       .  A
N1321      C1322   1.363       .  A
N1321      H1331   1.044       .  S
C1322      C1323   1.400       .  A
C1323      H1329   1.081       .  S
N1324      C1325   1.359       .  A
N1324      H1332   1.043       .  S
C1325      C1326   1.405       .  A
C1326      H1330   1.082       .  S
C1333      C1338   1.381       .  A
C1333      C1334   1.406       .  A
C1333      N1339   1.344       .  A
C1334      C1335   1.405       .  A
C1334      H1345   1.082       .  S
C1335      C1344   1.378       .  A
C1335      C1336   1.381       .  A
C1336      C1337   1.401       .  A
C1336      N1342   1.343       .  A
C1337      C1338   1.401       .  A
C1337      H1346   1.075       .  S
C1338      C1341   1.377       .  A
N1339      C1340   1.362       .  A
N1339      H1349   1.044       .  S
C1340      C1341   1.401       .  A
C1341      H1347   1.081       .  S
N1342      C1343   1.358       .  A
N1342      H1350   1.044       .  S
C1343      C1344   1.405       .  A
C1344      H1348   1.082       .  S
C1351      C1356   1.382       .  A
C1351      C1352   1.394       .  A
C1351      N1357   1.336       .  A
C1352      C1353   1.392       .  A
C1352      H1363   1.083       .  S
C1353      C1362   1.363       .  A
C1353      C1354   1.380       .  A
C1354      C1355   1.408       .  A
C1354      N1360   1.346       .  A
C1355      C1356   1.408       .  A
C1355      H1364   1.082       .  S
C1356      C1359   1.380       .  A
N1357      C1358   1.358       .  A
N1357      H1367   1.043       .  S
C1358      C1359   1.407       .  A
C1359      H1365   1.082       .  S
N1360      C1361   1.363       .  A
N1360      H1368   1.044       .  S
C1361      C1362   1.400       .  A
C1362      H1366   1.081       .  S
C1369      C1878   1.381   1_545  A
C1369      C1370   1.407       .  A
C1369      N1375   1.345       .  A
C1370      C1371   1.406       .  A
C1370      H1381   1.083       .  S
C1371      C1380   1.379       .  A
C1371      C1876   1.382   1_545  A
C1372      C1875   1.382       .  A
C1372      C1373   1.398       .  A
C1372      N1378   1.339       .  A
C1373      C1374   1.397       .  A
C1373      H1382   1.083       .  S
C1374      C1873   1.381       .  A
C1374      C1377   1.370       .  A
N1375      C1376   1.361   1_545  A
N1375      H1385   1.045       .  S
C1376      C1768   1.526       .  S
C1376      C1881   1.400       .  A
C1377      C1880   1.400       .  A
C1377      H1383   1.081       .  S
N1378      C1883   1.358       .  A
N1378      H1386   1.043       .  S
C1379      C1772   1.527       .  S
C1379      C1380   1.403   1_565  A
C1379      N1882   1.358       .  A
C1380      H1384   1.083       .  S
C1387      C1392   1.381       .  A
C1387      C1388   1.407       .  A
C1387      N1393   1.346       .  A
C1388      C1389   1.407       .  A
C1388      H1399   1.083       .  S
C1389      C1398   1.380       .  A
C1389      C1390   1.382       .  A
C1390      C1391   1.397       .  A
C1390      N1396   1.338       .  A
C1391      C1392   1.395       .  A
C1391      H1400   1.083       .  S
C1392      C1395   1.368       .  A
N1393      C1394   1.361       .  A
N1393      H1403   1.045       .  S
C1394      C1395   1.399       .  A
C1395      H1401   1.081       .  S
N1396      C1397   1.358       .  A
N1396      H1404   1.043       .  S
C1397      C1398   1.403       .  A
C1398      H1402   1.082       .  S
C1405      C1410   1.381       .  A
C1405      C1406   1.406       .  A
C1405      N1411   1.347       .  A
C1406      C1407   1.406       .  A
C1406      H1417   1.082       .  S
C1407      C1416   1.384       .  A
C1407      C1408   1.380       .  A
C1408      C1409   1.401       .  A
C1408      N1414   1.338       .  A
C1409      C1410   1.399       .  A
C1409      H1418   1.083       .  S
C1410      C1413   1.371       .  A
N1411      C1412   1.363       .  A
N1411      H1421   1.040       .  S
C1412      C1413   1.402       .  A
C1413      H1419   1.083       .  S
N1414      C1415   1.360       .  A
N1414      H1422   1.045       .  S
C1415      C1416   1.406       .  A
C1416      H1420   1.079       .  S
C1423      C1428   1.381       .  A
C1423      C1424   1.406       .  A
C1423      N1429   1.345       .  A
C1424      C1425   1.406       .  A
C1424      H1435   1.083       .  S
C1425      C1434   1.379       .  A
C1425      C1426   1.382       .  A
C1426      C1427   1.398       .  A
C1426      N1432   1.339       .  A
C1427      C1428   1.397       .  A
C1427      H1436   1.083       .  S
C1428      C1431   1.370       .  A
N1429      C1430   1.360       .  A
N1429      H1439   1.045       .  S
C1430      C1431   1.401       .  A
C1431      H1437   1.081       .  S
N1432      C1433   1.359       .  A
N1432      H1440   1.043       .  S
C1433      C1434   1.402       .  A
C1434      H1438   1.082       .  S
C1441      C1446   1.381       .  A
C1441      C1442   1.406       .  A
C1441      N1447   1.345       .  A
C1442      C1443   1.405       .  A
C1442      H1453   1.082       .  S
C1443      C1452   1.379       .  A
C1443      C1444   1.382       .  A
C1444      C1445   1.401       .  A
C1444      N1450   1.342       .  A
C1445      C1446   1.400       .  A
C1445      H1454   1.082       .  S
C1446      C1449   1.374       .  A
N1447      C1448   1.362       .  A
N1447      H1457   1.045       .  S
C1448      C1449   1.403       .  A
C1449      H1455   1.082       .  S
N1450      C1451   1.360       .  A
N1450      H1458   1.044       .  S
C1451      C1452   1.404       .  A
C1452      H1456   1.082       .  S
C1459      C1464   1.382       .  A
C1459      C1460   1.397       .  A
C1459      N1465   1.339       .  A
C1460      C1461   1.397       .  A
C1460      H1471   1.083       .  S
C1461      C1470   1.369       .  A
C1461      C1462   1.381       .  A
C1462      C1463   1.406       .  A
C1462      N1468   1.347       .  A
C1463      C1464   1.407       .  A
C1463      H1472   1.083       .  S
C1464      C1467   1.378       .  A
N1465      C1466   1.358       .  A
N1465      H1475   1.043       .  S
C1466      C1467   1.403       .  A
C1467      H1473   1.083       .  S
N1468      C1469   1.361       .  A
N1468      H1476   1.045       .  S
C1469      C1470   1.401       .  A
C1470      H1474   1.081       .  S
C1477      C1482   1.381       .  A
C1477      C1478   1.406       .  A
C1477      N1483   1.348       .  A
C1478      C1479   1.406       .  A
C1478      H1489   1.082       .  S
C1479      C1488   1.381       .  A
C1479      C1480   1.380       .  A
C1480      C1481   1.400       .  A
C1480      N1486   1.338       .  A
C1481      C1482   1.400       .  A
C1481      H1490   1.083       .  S
C1482      C1485   1.369       .  A
N1483      C1484   1.363       .  A
N1483      H1493   1.041       .  S
C1484      C1485   1.402       .  A
C1485      H1491   1.083       .  S
N1486      C1487   1.359       .  A
N1486      H1494   1.045       .  S
C1487      C1488   1.407       .  A
C1488      H1492   1.079       .  S
C1495      C1500   1.381       .  A
C1495      C1496   1.407       .  A
C1495      N1501   1.346       .  A
C1496      C1497   1.406       .  A
C1496      H1507   1.082       .  S
C1497      C1506   1.379       .  A
C1497      C1498   1.382       .  A
C1498      C1499   1.400       .  A
C1498      N1504   1.341       .  A
C1499      C1500   1.399       .  A
C1499      H1508   1.082       .  S
C1500      C1503   1.372       .  A
N1501      C1502   1.362       .  A
N1501      H1511   1.045       .  S
C1502      C1503   1.402       .  A
C1503      H1509   1.082       .  S
N1504      C1505   1.360       .  A
N1504      H1512   1.044       .  S
C1505      C1506   1.405       .  A
C1506      H1510   1.082       .  S
C1513      C1548   1.521       .  S
C1513      C1718   1.525       .  S
C1513      C1736   1.543       .  S
C1513      C1754   1.541       .  S
C1514      C1532   1.522       .  S
C1514      C1685   1.525       .  S
C1514      C1703   1.541       .  S
C1514      C1739   1.539       .  S
C1515      C1533   1.524       .  S
C1515      C1649   1.527       .  S
C1515      C1664   1.542       .  S
C1515      C1757   1.542       .  S
C1516      C1667   1.540       .  S
C1516      C1700   1.542       .  S
C1517      C1798   1.523       .  S
C1517      C1592   1.538       .  S
C1517      C1610   1.538       .  S
C1517      C1721   1.529       .  S
C1518      C1786   1.520       .  S
C1518      C1574   1.536       .  S
C1518      C1595   1.538       .  S
C1518      C1682   1.527       .  S
C1519      C1783   1.516       .  S
C1519      C1556   1.536       .  S
C1519      C1613   1.538       .  S
C1519      C1646   1.525       .  S
C1520      C1559   1.533       .  S
C1520      C1577   1.536       .  S
O1521      V1529   1.894       .  S
O1521      C1531   1.265       .  A
O1522      C1532   1.266       .  A
O1523      V1529   1.901       .  S
O1523      C1533   1.262       .  A
O1524      C1534   1.267       .  A
O1525      V1530   1.898       .  S
O1525      C1534   1.265       .  A
O1526      C1533   1.266       .  A
O1527      V1530   1.898       .  S
O1527      C1532   1.262       .  A
O1528      C1531   1.266       .  A
C1531      C1771   1.516       .  S
C1534      C1770   1.520       .  S
O1535      V1543   1.902       .  S
O1535      C1545   1.263       .  A
O1536      V1543   1.902       .  S
O1536      C1546   1.266       .  A
O1537      V1543   1.896       .  S
O1537      C1547   1.265       .  A
O1538      V1543   1.900       .  S
O1538      C1548   1.267       .  A
O1539      V1544   1.898       .  S
O1539      C1548   1.262       .  A
O1540      V1544   1.898       .  S
O1540      C1547   1.265       .  A
O1541      V1544   1.901       .  S
O1541      C1546   1.266       .  A
O1542      V1544   1.903       .  S
O1542      C1545   1.268       .  A
V1543      V1544   2.081       .  T
C1546      C1769   1.523       .  S
C1549      C1554   1.382       .  A
C1549      C1550   1.402       .  A
C1549      N1555   1.342       .  A
C1550      C1551   1.401       .  A
C1550      H1561   1.082       .  S
C1551      C1560   1.373       .  A
C1551      C1552   1.381       .  A
C1552      C1553   1.400   1_554  A
C1552      N1558   1.342   1_554  A
C1553      C1554   1.401   1_556  A
C1553      H1562   1.076       .  S
C1554      C1557   1.375   1_554  A
N1555      C1556   1.361       .  A
N1555      H1565   1.044       .  S
C1556      C1557   1.401   1_554  A
C1557      H1563   1.081       .  S
N1558      C1559   1.358   1_556  A
N1558      H1566   1.046       .  S
C1559      C1560   1.403       .  A
C1560      H1564   1.081       .  S
C1567      C1572   1.381       .  A
C1567      C1568   1.407       .  A
C1567      N1573   1.345       .  A
C1568      C1569   1.407       .  A
C1568      H1579   1.082       .  S
C1569      C1578   1.381       .  A
C1569      C1570   1.382       .  A
C1570      C1571   1.396       .  A
C1570      N1576   1.336       .  A
C1571      C1572   1.394       .  A
C1571      H1580   1.083       .  S
C1572      C1575   1.367       .  A
N1573      C1574   1.363       .  A
N1573      H1583   1.044       .  S
C1574      C1575   1.400       .  A
C1575      H1581   1.081       .  S
N1576      C1577   1.359       .  A
N1576      H1584   1.043       .  S
C1577      C1578   1.405       .  A
C1578      H1582   1.082       .  S
C1585      C1590   1.381       .  A
C1585      C1586   1.406       .  A
C1585      N1591   1.344       .  A
C1586      C1587   1.405       .  A
C1586      H1597   1.082       .  S
C1587      C1596   1.377       .  A
C1587      C1588   1.381       .  A
C1588      C1589   1.401   1_554  A
C1588      N1594   1.343       .  A
C1589      C1590   1.401   1_556  A
C1589      H1598   1.075       .  S
C1590      C1593   1.377   1_554  A
N1591      C1592   1.362       .  A
N1591      H1601   1.044       .  S
C1592      C1593   1.401   1_554  A
C1593      H1599   1.081       .  S
N1594      C1595   1.358       .  A
N1594      H1602   1.044   1_554  S
C1595      C1596   1.405       .  A
C1596      H1600   1.082       .  S
C1603      C1608   1.382       .  A
C1603      C1604   1.394       .  A
C1603      N1609   1.336       .  A
C1604      C1605   1.392       .  A
C1604      H1615   1.083       .  S
C1605      C1614   1.363       .  A
C1605      C1606   1.380       .  A
C1606      C1607   1.408       .  A
C1606      N1612   1.346       .  A
C1607      C1608   1.408       .  A
C1607      H1616   1.082       .  S
C1608      C1611   1.380       .  A
N1609      C1610   1.358       .  A
N1609      H1619   1.043       .  S
C1610      C1611   1.407       .  A
C1611      H1617   1.082       .  S
N1612      C1613   1.363       .  A
N1612      H1620   1.044       .  S
C1613      C1614   1.400       .  A
C1614      H1618   1.081       .  S
C1621      C1622   1.407       .  A
C1621      N1627   1.345       .  A
C1622      C1623   1.406       .  A
C1622      H1633   1.083       .  S
C1623      C1632   1.379       .  A
C1624      C1625   1.398       .  A
C1624      N1630   1.339       .  A
C1625      C1626   1.397       .  A
C1625      H1634   1.083       .  S
C1626      C1629   1.370       .  A
N1627      C1628   1.361       .  A
N1627      H1637   1.045       .  S
C1629      H1635   1.081       .  S
N1630      H1638   1.043       .  S
C1631      C1632   1.403       .  A
C1632      H1636   1.083       .  S
C1639      C1644   1.381       .  A
C1639      C1640   1.407       .  A
C1639      N1645   1.346       .  A
C1640      C1641   1.407       .  A
C1640      H1651   1.083       .  S
C1641      C1650   1.380       .  A
C1641      C1642   1.382       .  A
C1642      C1643   1.397       .  A
C1642      N1648   1.338       .  A
C1643      C1644   1.395       .  A
C1643      H1652   1.083       .  S
C1644      C1647   1.368       .  A
N1645      C1646   1.361       .  A
N1645      H1655   1.045       .  S
C1646      C1647   1.399       .  A
C1647      H1653   1.081       .  S
N1648      C1649   1.358       .  A
N1648      H1656   1.042       .  S
C1649      C1650   1.403       .  A
C1650      H1654   1.082       .  S
C1657      C1662   1.381       .  A
C1657      C1658   1.406       .  A
C1657      N1663   1.347       .  A
C1658      C1659   1.406       .  A
C1658      H1669   1.082       .  S
C1659      C1668   1.384       .  A
C1659      C1660   1.380       .  A
C1660      C1661   1.401       .  A
C1660      N1666   1.338       .  A
C1661      C1662   1.399       .  A
C1661      H1670   1.083       .  S
C1662      C1665   1.371       .  A
N1663      C1664   1.363       .  A
N1663      H1673   1.040       .  S
C1664      C1665   1.402       .  A
C1665      H1671   1.083       .  S
N1666      C1667   1.360       .  A
N1666      H1674   1.045       .  S
C1667      C1668   1.406       .  A
C1668      H1672   1.079       .  S
C1675      C1680   1.381       .  A
C1675      C1676   1.406       .  A
C1675      N1681   1.345       .  A
C1676      C1677   1.406       .  A
C1676      H1687   1.083       .  S
C1677      C1686   1.379       .  A
C1677      C1678   1.382       .  A
C1678      C1679   1.398       .  A
C1678      N1684   1.339       .  A
C1679      C1680   1.397       .  A
C1679      H1688   1.083       .  S
C1680      C1683   1.370       .  A
N1681      C1682   1.360       .  A
N1681      H1691   1.045       .  S
C1682      C1683   1.401       .  A
C1683      H1689   1.081       .  S
N1684      C1685   1.359       .  A
N1684      H1692   1.043       .  S
C1685      C1686   1.402       .  A
C1686      H1690   1.082       .  S
C1693      C1698   1.381       .  A
C1693      C1694   1.406       .  A
C1693      N1699   1.345       .  A
C1694      C1695   1.406       .  A
C1694      H1705   1.082       .  S
C1695      C1704   1.379       .  A
C1695      C1696   1.382       .  A
C1696      C1697   1.401       .  A
C1696      N1702   1.342       .  A
C1697      C1698   1.400       .  A
C1697      H1706   1.082       .  S
C1698      C1701   1.374       .  A
N1699      C1700   1.362       .  A
N1699      H1709   1.045       .  S
C1700      C1701   1.403       .  A
C1701      H1707   1.082       .  S
N1702      C1703   1.360       .  A
N1702      H1710   1.044       .  S
C1703      C1704   1.404       .  A
C1704      H1708   1.082       .  S
C1711      C1716   1.382       .  A
C1711      C1712   1.397       .  A
C1711      N1717   1.339       .  A
C1712      C1713   1.397       .  A
C1712      H1723   1.083       .  S
C1713      C1722   1.369       .  A
C1713      C1714   1.381       .  A
C1714      C1715   1.406       .  A
C1714      N1720   1.347       .  A
C1715      C1716   1.407       .  A
C1715      H1724   1.083       .  S
C1716      C1719   1.378       .  A
N1717      C1718   1.358       .  A
N1717      H1727   1.043       .  S
C1718      C1719   1.403       .  A
C1719      H1725   1.083       .  S
N1720      C1721   1.361       .  A
N1720      H1728   1.045       .  S
C1721      C1722   1.401       .  A
C1722      H1726   1.081       .  S
C1729      C1734   1.381       .  A
C1729      C1730   1.406       .  A
C1729      N1735   1.348       .  A
C1730      C1731   1.406       .  A
C1730      H1741   1.082       .  S
C1731      C1740   1.381       .  A
C1731      C1732   1.380       .  A
C1732      C1733   1.400       .  A
C1732      N1738   1.338       .  A
C1733      C1734   1.400       .  A
C1733      H1742   1.083       .  S
C1734      C1737   1.369       .  A
N1735      C1736   1.363       .  A
N1735      H1745   1.041       .  S
C1736      C1737   1.402       .  A
C1737      H1743   1.083       .  S
N1738      C1739   1.359       .  A
N1738      H1746   1.045       .  S
C1739      C1740   1.407       .  A
C1740      H1744   1.079       .  S
C1747      C1752   1.381       .  A
C1747      C1748   1.407       .  A
C1747      N1753   1.346       .  A
C1748      C1749   1.406       .  A
C1748      H1759   1.082       .  S
C1749      C1758   1.379       .  A
C1749      C1750   1.382       .  A
C1750      C1751   1.400       .  A
C1750      N1756   1.341       .  A
C1751      C1752   1.399       .  A
C1751      H1760   1.082       .  S
C1752      C1755   1.372       .  A
N1753      C1754   1.362       .  A
N1753      H1763   1.045       .  S
C1754      C1755   1.402       .  A
C1755      H1761   1.082       .  S
N1756      C1757   1.360       .  A
N1756      H1764   1.044       .  S
C1757      C1758   1.405       .  A
C1758      H1762   1.082       .  S
C1765      C1800   1.521       .  S
C1765      C1970   1.525       .  S
C1765      C1988   1.543       .  S
C1765      C2006   1.541       .  S
C1766      C1784   1.522       .  S
C1766      C1937   1.525       .  S
C1766      C1955   1.541       .  S
C1766      C1991   1.539       .  S
C1767      C1785   1.524       .  S
C1767      C1901   1.527       .  S
C1767      C1916   1.542       .  S
C1767      C2009   1.542       .  S
C1768      C1919   1.540       .  S
C1768      C1952   1.542       .  S
C1769      C1844   1.538       .  S
C1769      C1862   1.538       .  S
C1769      C1973   1.529       .  S
C1770      C1826   1.536       .  S
C1770      C1847   1.538       .  S
C1770      C1934   1.527       .  S
C1771      C1808   1.535       .  S
C1771      C1865   1.538       .  S
C1771      C1898   1.525       .  S
C1772      C1811   1.533       .  S
C1772      C1829   1.536       .  S
O1773      V1781   1.894       .  S
O1773      C1783   1.265   1_556  A
O1774      C1784   1.266       .  A
O1775      V1781   1.901       .  S
O1775      C1785   1.262       .  A
O1776      C1786   1.267   1_556  A
O1777      V1782   1.898       .  S
O1777      C1786   1.265   1_556  A
O1778      C1785   1.266       .  A
O1779      V1782   1.898       .  S
O1779      C1784   1.262       .  A
O1780      C1783   1.266   1_556  A
O1787      V1795   1.902       .  S
O1787      C1797   1.263       .  A
O1788      V1795   1.902       .  S
O1788      C1798   1.266   1_556  A
O1789      V1795   1.895       .  S
O1789      C1799   1.265   1_556  A
O1790      V1795   1.900       .  S
O1790      C1800   1.267       .  A
O1791      V1796   1.898       .  S
O1791      C1800   1.262       .  A
O1792      V1796   1.898       .  S
O1792      C1799   1.265   1_556  A
O1793      V1796   1.901       .  S
O1793      C1798   1.266   1_556  A
O1794      V1796   1.903       .  S
O1794      C1797   1.268       .  A
V1795      V1796   2.081       .  T
C1801      C1806   1.382       .  A
C1801      C1802   1.402       .  A
C1801      N1807   1.342       .  A
C1802      C1803   1.401       .  A
C1802      H1813   1.082       .  S
C1803      C1812   1.373       .  A
C1803      C1804   1.381       .  A
C1804      C1805   1.400       .  A
C1804      N1810   1.342       .  A
C1805      C1806   1.401       .  A
C1805      H1814   1.076       .  S
C1806      C1809   1.375       .  A
N1807      C1808   1.361       .  A
N1807      H1817   1.044       .  S
C1808      C1809   1.401       .  A
C1809      H1815   1.081       .  S
N1810      C1811   1.358       .  A
N1810      H1818   1.046       .  S
C1811      C1812   1.403       .  A
C1812      H1816   1.081       .  S
C1819      C1824   1.381       .  A
C1819      C1820   1.407       .  A
C1819      N1825   1.345       .  A
C1820      C1821   1.406       .  A
C1820      H1831   1.082       .  S
C1821      C1830   1.381       .  A
C1821      C1822   1.382       .  A
C1822      C1823   1.396       .  A
C1822      N1828   1.336       .  A
C1823      C1824   1.394       .  A
C1823      H1832   1.083       .  S
C1824      C1827   1.367       .  A
N1825      C1826   1.363       .  A
N1825      H1835   1.044       .  S
C1826      C1827   1.400       .  A
C1827      H1833   1.081       .  S
N1828      C1829   1.359       .  A
N1828      H1836   1.043       .  S
C1829      C1830   1.405       .  A
C1830      H1834   1.082       .  S
C1837      C1842   1.381       .  A
C1837      C1838   1.406       .  A
C1837      N1843   1.344       .  A
C1838      C1839   1.405       .  A
C1838      H1849   1.082       .  S
C1839      C1848   1.378       .  A
C1839      C1840   1.381       .  A
C1840      C1841   1.401       .  A
C1840      N1846   1.343       .  A
C1841      C1842   1.401       .  A
C1841      H1850   1.075       .  S
C1842      C1845   1.377       .  A
N1843      C1844   1.362       .  A
N1843      H1853   1.044       .  S
C1844      C1845   1.401       .  A
C1845      H1851   1.081       .  S
N1846      C1847   1.358       .  A
N1846      H1854   1.044       .  S
C1847      C1848   1.405       .  A
C1848      H1852   1.082       .  S
C1855      C1860   1.382       .  A
C1855      C1856   1.394       .  A
C1855      N1861   1.336       .  A
C1856      C1857   1.392       .  A
C1856      H1867   1.083       .  S
C1857      C1866   1.363       .  A
C1857      C1858   1.380       .  A
C1858      C1859   1.408       .  A
C1858      N1864   1.346       .  A
C1859      C1860   1.408       .  A
C1859      H1868   1.082       .  S
C1860      C1863   1.380       .  A
N1861      C1862   1.358       .  A
N1861      H1871   1.043       .  S
C1862      C1863   1.407       .  A
C1863      H1869   1.082       .  S
N1864      C1865   1.363       .  A
N1864      H1872   1.044       .  S
C1865      C1866   1.400       .  A
C1866      H1870   1.081       .  S
C1873      C1874   1.407       .  A
C1873      N1879   1.345       .  A
C1874      C1875   1.406       .  A
C1874      H1885   1.083       .  S
C1875      C1884   1.379       .  A
C1876      C1877   1.398       .  A
C1876      N1882   1.339       .  A
C1877      C1878   1.397       .  A
C1877      H1886   1.083       .  S
C1878      C1881   1.370       .  A
N1879      C1880   1.361       .  A
N1879      H1889   1.045       .  S
C1881      H1887   1.081       .  S
N1882      H1890   1.043       .  S
C1883      C1884   1.403       .  A
C1884      H1888   1.083       .  S
C1891      C1896   1.381       .  A
C1891      C1892   1.407       .  A
C1891      N1897   1.346       .  A
C1892      C1893   1.407       .  A
C1892      H1903   1.083       .  S
C1893      C1902   1.380       .  A
C1893      C1894   1.382       .  A
C1894      C1895   1.397       .  A
C1894      N1900   1.338       .  A
C1895      C1896   1.395       .  A
C1895      H1904   1.083       .  S
C1896      C1899   1.368       .  A
N1897      C1898   1.361       .  A
N1897      H1907   1.045       .  S
C1898      C1899   1.399       .  A
C1899      H1905   1.081       .  S
N1900      C1901   1.358       .  A
N1900      H1908   1.043       .  S
C1901      C1902   1.403       .  A
C1902      H1906   1.082       .  S
C1909      C1914   1.381       .  A
C1909      C1910   1.406       .  A
C1909      N1915   1.347       .  A
C1910      C1911   1.406       .  A
C1910      H1921   1.082       .  S
C1911      C1920   1.384       .  A
C1911      C1912   1.380       .  A
C1912      C1913   1.401       .  A
C1912      N1918   1.338       .  A
C1913      C1914   1.399       .  A
C1913      H1922   1.083       .  S
C1914      C1917   1.371       .  A
N1915      C1916   1.363       .  A
N1915      H1925   1.040       .  S
C1916      C1917   1.402       .  A
C1917      H1923   1.083       .  S
N1918      C1919   1.360       .  A
N1918      H1926   1.045       .  S
C1919      C1920   1.406       .  A
C1920      H1924   1.079       .  S
C1927      C1932   1.381       .  A
C1927      C1928   1.406       .  A
C1927      N1933   1.345       .  A
C1928      C1929   1.406       .  A
C1928      H1939   1.083       .  S
C1929      C1938   1.379       .  A
C1929      C1930   1.382       .  A
C1930      C1931   1.398       .  A
C1930      N1936   1.339       .  A
C1931      C1932   1.397       .  A
C1931      H1940   1.083       .  S
C1932      C1935   1.370       .  A
N1933      C1934   1.360       .  A
N1933      H1943   1.045       .  S
C1934      C1935   1.401       .  A
C1935      H1941   1.081       .  S
N1936      C1937   1.359       .  A
N1936      H1944   1.043       .  S
C1937      C1938   1.402       .  A
C1938      H1942   1.082       .  S
C1945      C1950   1.381       .  A
C1945      C1946   1.406       .  A
C1945      N1951   1.345       .  A
C1946      C1947   1.405       .  A
C1946      H1957   1.082       .  S
C1947      C1956   1.379       .  A
C1947      C1948   1.382       .  A
C1948      C1949   1.401       .  A
C1948      N1954   1.342       .  A
C1949      C1950   1.400       .  A
C1949      H1958   1.082       .  S
C1950      C1953   1.374       .  A
N1951      C1952   1.362       .  A
N1951      H1961   1.045       .  S
C1952      C1953   1.403       .  A
C1953      H1959   1.082       .  S
N1954      C1955   1.360       .  A
N1954      H1962   1.044       .  S
C1955      C1956   1.404       .  A
C1956      H1960   1.082       .  S
C1963      C1968   1.382       .  A
C1963      C1964   1.397       .  A
C1963      N1969   1.339       .  A
C1964      C1965   1.397       .  A
C1964      H1975   1.083       .  S
C1965      C1974   1.369       .  A
C1965      C1966   1.381       .  A
C1966      C1967   1.406       .  A
C1966      N1972   1.347       .  A
C1967      C1968   1.407       .  A
C1967      H1976   1.083       .  S
C1968      C1971   1.378       .  A
N1969      C1970   1.358       .  A
N1969      H1979   1.043       .  S
C1970      C1971   1.403       .  A
C1971      H1977   1.083       .  S
N1972      C1973   1.361       .  A
N1972      H1980   1.045       .  S
C1973      C1974   1.401       .  A
C1974      H1978   1.081       .  S
C1981      C1986   1.381       .  A
C1981      C1982   1.406       .  A
C1981      N1987   1.348       .  A
C1982      C1983   1.406       .  A
C1982      H1993   1.082       .  S
C1983      C1992   1.381       .  A
C1983      C1984   1.380       .  A
C1984      C1985   1.400       .  A
C1984      N1990   1.338       .  A
C1985      C1986   1.400       .  A
C1985      H1994   1.083       .  S
C1986      C1989   1.369       .  A
N1987      C1988   1.363       .  A
N1987      H1997   1.041       .  S
C1988      C1989   1.402       .  A
C1989      H1995   1.083       .  S
N1990      C1991   1.359       .  A
N1990      H1998   1.045       .  S
C1991      C1992   1.407       .  A
C1992      H1996   1.079       .  S
C1999      C2004   1.381       .  A
C1999      C2000   1.407       .  A
C1999      N2005   1.346       .  A
C2000      C2001   1.406       .  A
C2000      H2011   1.082       .  S
C2001      C2010   1.379       .  A
C2001      C2002   1.382       .  A
C2002      C2003   1.400       .  A
C2002      N2008   1.341       .  A
C2003      C2004   1.399       .  A
C2003      H2012   1.082       .  S
C2004      C2007   1.372       .  A
N2005      C2006   1.362       .  A
N2005      H2015   1.045       .  S
C2006      C2007   1.402       .  A
C2007      H2013   1.082       .  S
N2008      C2009   1.360       .  A
N2008      H2016   1.044       .  S
C2009      C2010   1.405       .  A
C2010      H2014   1.082       .  S
