geometry optimzed in LAMMPS
_audit_creation_date              2020-11-30 
_audit_creation_method            'lammps2cif' 
_symmetry_space_group_name_H-M    'P1' 
_symmetry_Int_Tables_number       1 
_symmetry_cell_setting            triclinic 
loop_ 
_symmetry_equiv_pos_as_xyz 
  x,y,z 
_cell_length_a                    32.91809591 
_cell_length_b                    32.87142752166586 
_cell_length_c                    48.60662232062813 
_cell_angle_alpha                 90.11933104336319 
_cell_angle_beta                  89.75314372061155 
_cell_angle_gamma                 119.85429907376617 
loop_ 
_atom_site_label 
_atom_site_type_symbol 
_atom_site_fract_x 
_atom_site_fract_y 
_atom_site_fract_z 
_atom_site_charge 
C1          C  0.33573810  0.66555619  0.09807598     0.46300
H2          H  0.34030423  0.66530894  0.07591431    -0.02700
C3          C  0.33179803  0.66896913  0.15117921     0.46400
H4          H  0.32898511  0.67052712  0.17371572    -0.02700
C5          C  0.35688897  0.63866639  0.11303444    -0.16400
C6          C  0.36197102  0.71610222  0.10923102    -0.16100
C7          C  0.28435473  0.64457377  0.10857520    -0.16500
C8          C  0.35523891  0.64039907  0.14150933    -0.16500
C9          C  0.36062849  0.71807165  0.13744600    -0.16100
C10         C  0.28268530  0.64501767  0.13731559    -0.16400
C11         C  0.15737022  0.39411930  0.38631564     0.03200
C12         C  0.16232514  0.39262784  0.35745293     0.03100
C13         C  0.19924754  0.38719942  0.34742271    -0.17400
C14         C  0.23523470  0.39237685  0.36487859     0.03200
C15         C  0.23015950  0.39370956  0.39371374     0.03100
C16         C  0.18870757  0.39005904  0.40391948    -0.17400
H17         H  0.18297174  0.38900221  0.42588804     0.05200
H18         H  0.20282898  0.38386451  0.32553453     0.05200
C19         C  0.14975893  0.77540453  0.38471769     0.03200
C20         C  0.15544080  0.77507728  0.35581972     0.03100
C21         C  0.19461776  0.81276181  0.34336713    -0.17400
C22         C  0.23143999  0.84644011  0.35925808     0.03200
C23         C  0.22627316  0.84595995  0.38820306     0.03100
C24         C  0.18323044  0.81341033  0.40001849    -0.17400
H25         H  0.17927348  0.81311585  0.42215512     0.05200
H26         H  0.19954203  0.81209815  0.32131694     0.05200
C27         C  0.77058177  0.62079091  0.11353209     0.03200
C28         C  0.77407276  0.62185334  0.14255551     0.03100
C29         C  0.81536950  0.62780242  0.15459996    -0.17400
C30         C  0.84825680  0.62284864  0.13875775     0.03200
C31         C  0.84330087  0.61928595  0.10993200     0.03100
C32         C  0.80700214  0.62285637  0.09758007    -0.17400
H33         H  0.80328211  0.61963489  0.07539745     0.05200
H34         H  0.81820734  0.62856013  0.17683442     0.05200
O35         O  0.07716156  0.49722782  0.46056238    -0.77600
C36         C  0.05110557  0.61105867  0.45279730     0.83400
O37         O  0.07135077  0.54281619  0.05489746    -0.78700
O38         O  0.94381864  0.56031462  0.01796885    -0.80200
O39         O  0.90848435  0.42753622  0.45939908    -0.80000
O40         O  0.00991536  0.42990411  0.45733859    -0.78600
Zn41       Zn  0.06521417  0.53937923  0.48506526     1.55700
O42         O  0.90549742  0.49339833  0.46167801    -0.80000
Cd43       Cd  0.96707582  0.44193478  0.48247036     1.59700
Cd44       Cd  0.00335891  0.50537728  0.03922953     1.59600
O45         O  0.94513360  0.39459909  0.01401204    -0.80000
O46         O  0.00100748  0.50674385  0.49789145    -1.90500
Cd47       Cd  0.96557383  0.53790838  0.48453732     1.59900
O48         O  0.97223913  0.43605468  0.05284365    -0.80000
O49         O  0.00855237  0.59497735  0.46004996    -0.78600
C50         C  0.11083468  0.56364665  0.04256437     0.83900
C51         C  0.05274092  0.45590278  0.45092753     0.83500
O52         O  0.07528615  0.59320931  0.46136647    -0.77600
C53         C  0.88862810  0.45115854  0.45341237     0.84400
O54         O  0.11314030  0.56416903  0.01631334    -0.77700
C55         C  0.94982015  0.39712103  0.04002613     0.84500
C56         C  0.94602639  0.55624354  0.04388532     0.84800
O57         O  0.96652370  0.53619310  0.05496883    -0.80100
O58         O  0.07787991  0.58545637  0.28151559    -0.77600
C59         C  0.05108335  0.44423217  0.28983050     0.83400
O60         O  0.06900208  0.52929218  0.18836794    -0.78700
O61         O  0.94596577  0.38652182  0.22653568    -0.80200
O62         O  0.90692646  0.48618363  0.28479380    -0.80000
O63         O  0.01212538  0.58803452  0.28616237    -0.78600
Zn64       Zn  0.06362203  0.52982858  0.25816191     1.55700
O65         O  0.90372177  0.41701598  0.28205555    -0.80000
Cd66       Cd  0.96668082  0.53171321  0.26163411     1.59700
Cd67       Cd  0.00179088  0.50065824  0.20531241     1.59600
O68         O  0.94594684  0.55807293  0.22916010    -0.80000
O69         O  0.99930886  0.49855524  0.24647545    -1.90500
Cd70       Cd  0.96454001  0.43173656  0.25995189     1.59900
O71         O  0.96882961  0.53587922  0.19127366    -0.80000
O72         O  0.00753916  0.41826508  0.28491156    -0.78600
C73         C  0.10830840  0.54850729  0.20063888     0.83900
C74         C  0.05556241  0.60462273  0.29126347     0.83500
O75         O  0.07438121  0.48586023  0.28056435    -0.77600
C76         C  0.88665802  0.44233837  0.29038983     0.84400
O77         O  0.11059900  0.55162916  0.22677417    -0.77700
C78         C  0.94871423  0.55584611  0.20306398     0.84500
C79         C  0.94776759  0.39353925  0.20064111     0.84800
O80         O  0.96587982  0.43426685  0.19014487    -0.80100
C81         C  0.83985826  0.22910675  0.10365123     0.03200
C82         C  0.84580346  0.23133535  0.13255906     0.03100
C83         C  0.81572725  0.19289233  0.14871620    -0.17400
C84         C  0.77451410  0.15615290  0.13773741     0.03200
C85         C  0.76754380  0.15421504  0.10893388     0.03100
C86         C  0.80277033  0.18832824  0.09218994    -0.17400
H87         H  0.79838688  0.18546526  0.07008464     0.05200
H88         H  0.82062736  0.19502124  0.17084842     0.05200
C89         C  0.38304243  0.15125506  0.14040565     0.03200
C90         C  0.37622300  0.15006272  0.11151482     0.03100
C91         C  0.36514576  0.18233578  0.09986106    -0.17400
C92         C  0.37150960  0.22150604  0.11476661     0.03200
C93         C  0.37913360  0.22330546  0.14341973     0.03100
C94         C  0.38196309  0.18666178  0.15608843    -0.17400
H95         H  0.39008742  0.18941748  0.17784643     0.05200
H96         H  0.35954658  0.18154738  0.07785884     0.05200
C97         C  0.62066925  0.84024736  0.35938000     0.03200
C98         C  0.61624995  0.84364096  0.38814756     0.03100
C99         C  0.61741770  0.81019753  0.40551654    -0.17400
C100        C  0.61603719  0.76991571  0.39470704     0.03200
C101        C  0.62091473  0.76684445  0.36599614     0.03100
C102        C  0.62611035  0.80345037  0.34892443    -0.17400
H103        H  0.62708297  0.79953575  0.32679423     0.05200
H104        H  0.61372852  0.81275110  0.42752000     0.05200
O105        O  0.51266224  0.91704231  0.28203490    -0.77600
C106        C  0.39936409  0.94838367  0.29376236     0.83400
O107        O  0.47657391  0.93048887  0.19081834    -0.78700
O108        O  0.45220730  0.05529658  0.22861717    -0.80200
O109        O  0.58347396  0.08678523  0.29124605    -0.80000
O110        O  0.58096848  0.98270236  0.28687403    -0.78600
Zn111      Zn  0.47009262  0.93283078  0.26050598     1.55700
O112        O  0.52050835  0.09404287  0.28520257    -0.80000
Cd113      Cd  0.56969385  0.03030220  0.26554719     1.59700
Cd114      Cd  0.50851341  0.99753074  0.20801052     1.59600
O115        O  0.61823893  0.05752963  0.23427875    -0.80000
O116        O  0.50521180  0.99796742  0.24926412    -1.90500
Cd117      Cd  0.47463970  0.03405085  0.26242884     1.59900
O118        O  0.57697413  0.03131002  0.19543073    -0.80000
O119        O  0.41671003  0.99129644  0.28679772    -0.78600
C120        C  0.45082485  0.89068201  0.20200901     0.83900
C121        C  0.55450456  0.93890513  0.29108488     0.83500
O122        O  0.41683067  0.92359099  0.28524643    -0.77600
C123        C  0.56120148  0.10875469  0.29546443     0.84400
O124        O  0.44373529  0.88684829  0.22796934    -0.77700
C125        C  0.61556016  0.05412594  0.20817462     0.84500
C126        C  0.45660173  0.05341360  0.20261515     0.84800
O127        O  0.47749865  0.03350553  0.19172424    -0.80100
O128        O  0.41565181  0.48915069  0.28951514    -0.77600
C129        C  0.55285767  0.60160566  0.29913854     0.83400
O130        O  0.45876498  0.53219737  0.19629100    -0.78700
O131        O  0.61028366  0.55489602  0.23319812    -0.80200
O132        O  0.51270501  0.41738401  0.28777451    -0.80000
O133        O  0.41340689  0.42038491  0.29110516    -0.78600
Zn134      Zn  0.46842603  0.53252579  0.26524526     1.55700
O135        O  0.58091091  0.48388941  0.28672063    -0.80000
Cd136      Cd  0.46813128  0.43313905  0.26547163     1.59700
Cd137      Cd  0.49787568  0.50171560  0.21053347     1.59600
O138        O  0.44213323  0.38739543  0.23284131    -0.80000
O139        O  0.49951756  0.49953982  0.25172682    -1.90500
Cd140      Cd  0.56523095  0.52968282  0.26584976     1.59900
O141        O  0.46751219  0.43340716  0.19555195    -0.80000
O142        O  0.57863847  0.58451096  0.29212596    -0.78600
C143        C  0.44017141  0.55308294  0.20889971     0.83900
C144        C  0.39790179  0.44728761  0.29841686     0.83500
O145        O  0.51171066  0.58552916  0.28961809    -0.77600
C146        C  0.55604088  0.44111247  0.29392724     0.84400
O147        O  0.44253852  0.55707673  0.23506726    -0.77700
C148        C  0.44649457  0.39295677  0.20686271     0.84500
C149        C  0.60595927  0.55642115  0.20727967     0.84800
O150        O  0.56624070  0.53957410  0.19543196    -0.80100
O151        O  0.41120578  0.92201972  0.46253776    -0.77600
C152        C  0.55427178  0.95012224  0.45231753     0.83400
O153        O  0.45640860  0.92437320  0.05379863    -0.78700
O154        O  0.60699577  0.05127950  0.02003603    -0.80200
O155        O  0.51110048  0.09070059  0.45948607    -0.80000
O156        O  0.40988377  0.98905601  0.46047330    -0.78600
Zn157      Zn  0.46714157  0.93377732  0.48480228     1.55700
O158        O  0.57994466  0.09398523  0.46344885    -0.80000
Cd159      Cd  0.46681011  0.03293773  0.48395184     1.59700
Cd160      Cd  0.49166673  0.99333970  0.03968131     1.59600
O161        O  0.44224368  0.05535042  0.01650179    -0.80000
O162        O  0.49727779  0.99766827  0.49848675    -1.90500
Cd163      Cd  0.56436315  0.03325476  0.48595143     1.59900
O164        O  0.45432336  0.02438048  0.05431740    -0.80000
O165        O  0.58016733  0.99200015  0.46074455    -0.78600
C166        C  0.44057370  0.88532105  0.04125474     0.83900
C167        C  0.39271298  0.94592872  0.45439135     0.83500
O168        O  0.51164849  0.92565464  0.45999321    -0.77600
C169        C  0.55480686  0.11044409  0.45405744     0.84400
O170        O  0.44397477  0.88377947  0.01515377    -0.77700
C171        C  0.43855905  0.04816003  0.04241419     0.84500
C172        C  0.59963438  0.04725078  0.04593340     0.84800
O173        O  0.55850349  0.02737882  0.05637109    -0.80100
O174        O  0.51248515  0.58354995  0.46970224    -0.77600
C175        C  0.39390985  0.44391135  0.46019694     0.83400
O176        O  0.46611754  0.53284363  0.06202185    -0.78700
O177        O  0.44034625  0.38184013  0.02197369    -0.80200
O178        O  0.57927811  0.48054469  0.46645216    -0.80000
O179        O  0.57997649  0.58404898  0.46593994    -0.78600
Zn180      Zn  0.46796271  0.52830357  0.49247793     1.55700
O181        O  0.51233099  0.41249491  0.46702075    -0.80000
Cd182      Cd  0.56496855  0.52583834  0.48978932     1.59700
Cd183      Cd  0.49612663  0.49481075  0.04539554     1.59600
O184        O  0.60961103  0.54974114  0.02301282    -0.80000
O185        O  0.49877561  0.49441857  0.50412507    -1.90500
Cd186      Cd  0.46692184  0.42827662  0.48940320     1.59900
O187        O  0.56317535  0.52473383  0.06022368    -0.80000
O188        O  0.41056563  0.41692136  0.46493902    -0.78600
C189        C  0.44595521  0.55237576  0.04998138     0.83900
C190        C  0.55441626  0.60206238  0.46069746     0.83500
O191        O  0.41318658  0.48561594  0.46955360    -0.77600
C192        C  0.55521201  0.43728576  0.45972780     0.84400
O193        O  0.44340450  0.55237256  0.02381180    -0.77700
C194        C  0.60354724  0.54565594  0.04899866     0.84500
C195        C  0.44030118  0.38674682  0.04798823     0.84800
O196        O  0.45921734  0.42668290  0.05975164    -0.80100
C197        C  0.66723397  0.33323081  0.34744101     0.46300
H198        H  0.66761575  0.33401285  0.32469985    -0.02700
C199        C  0.66891616  0.33285912  0.40084497     0.46400
H200        H  0.66946092  0.33319483  0.42362936    -0.02700
C201        C  0.64082112  0.35624782  0.36086971    -0.16400
C202        C  0.64410757  0.28313894  0.35967864    -0.16100
C203        C  0.71732478  0.35977568  0.35919509    -0.16500
C204        C  0.64236574  0.35673549  0.38926340    -0.16500
C205        C  0.64504708  0.28292648  0.38819185    -0.16100
C206        C  0.71821193  0.35910272  0.38750763    -0.16400
C207        C  0.61194426  0.44418628  0.42299663    -0.11400
C208        C  0.57772120  0.41602715  0.44241645     0.05600
C209        C  0.56627639  0.36857594  0.44486963    -0.06700
C210        C  0.58841622  0.35043154  0.42791225    -0.07400
C211        C  0.62150470  0.37834739  0.40786100    -0.02000
C212        C  0.63378731  0.42604007  0.40594880     0.04800
N213        N  0.67089445  0.45758489  0.38832398     0.67300
H214        H  0.62215088  0.48089970  0.42108471     0.16200
H215        H  0.57896942  0.31394636  0.43005524     0.16000
N216        N  0.53334290  0.33866719  0.46505885     0.75000
O217        O  0.66286806  0.48033453  0.37036143    -0.38400
O218        O  0.71250015  0.47235386  0.39590442    -0.38300
O219        O  0.49185740  0.30999444  0.45801323    -0.39000
O220        O  0.54770956  0.33485254  0.48840676    -0.39100
C221        C  0.57537281  0.20501225  0.40076618    -0.11400
C222        C  0.62237863  0.23912636  0.40561250     0.05600
C223        C  0.64678617  0.23013849  0.42652361    -0.06700
C224        C  0.62428030  0.18797615  0.44157778    -0.07400
C225        C  0.57729887  0.15410166  0.43685315    -0.02000
C226        C  0.55293887  0.16293237  0.41592021     0.04800
N227        N  0.50624201  0.12842584  0.40866348     0.67300
H228        H  0.55589739  0.21087394  0.38485272     0.16200
H229        H  0.64378196  0.18201772  0.45743356     0.16000
N230        N  0.69495791  0.26225806  0.43229298     0.75000
O231        O  0.47212562  0.13162004  0.41801880    -0.38400
O232        O  0.49973562  0.10052286  0.38911581    -0.38300
O233        O  0.70490083  0.29463163  0.44950427    -0.39000
O234        O  0.72463443  0.24936858  0.42775455    -0.39100
C235        C  0.55104798  0.38635184  0.33108245    -0.11400
C236        C  0.57760916  0.41860857  0.31040809     0.05600
C237        C  0.62439291  0.42928169  0.30631118    -0.06700
C238        C  0.64339128  0.40770091  0.32259898    -0.07400
C239        C  0.61729523  0.37627868  0.34371266    -0.02000
C240        C  0.57014368  0.36511330  0.34773633     0.04800
N241        N  0.54066824  0.33175891  0.36806360     0.67300
H242        H  0.51501936  0.37760883  0.33439973     0.16200
H243        H  0.67921174  0.41613208  0.31890386     0.16000
N244        N  0.65288639  0.46122419  0.28529316     0.75000
O245        O  0.51434076  0.34042041  0.38294113    -0.38400
O246        O  0.53651920  0.29150118  0.36893379    -0.38300
O247        O  0.68603010  0.50119035  0.29185760    -0.39000
O248        O  0.65028842  0.44669483  0.26096106    -0.39100
C249        C  0.57118337  0.18768422  0.30641141    -0.11400
C250        C  0.58348891  0.15329020  0.31192443     0.05600
C251        C  0.61780415  0.16313533  0.33228473    -0.06700
C252        C  0.63745871  0.20562514  0.34706229    -0.07400
C253        C  0.62428879  0.23963518  0.34197903    -0.02000
C254        C  0.59164161  0.23067278  0.32062074     0.04800
N255        N  0.57795335  0.26412423  0.31303400     0.67300
H256        H  0.54595333  0.18163430  0.29041276     0.16200
H257        H  0.66311893  0.21194167  0.36282623     0.16000
N258        N  0.63217413  0.12985229  0.33886389     0.75000
O259        O  0.60112476  0.29370840  0.29456666    -0.38400
O260        O  0.53604073  0.25388652  0.31707632    -0.38300
O261        O  0.67073751  0.13577513  0.32981234    -0.39000
O262        O  0.61067863  0.09963498  0.35733684    -0.39100
C263        C  0.61942654  0.67322209  0.31975082    -0.11400
C264        C  0.57101710  0.64130965  0.31867439     0.05600
C265        C  0.54050408  0.64874999  0.33580729    -0.06700
C266        C  0.55836725  0.68852282  0.35242148    -0.07400
C267        C  0.60626262  0.72139079  0.35248376    -0.02000
C268        C  0.63716524  0.71333641  0.33636910     0.04800
N269        N  0.68630569  0.74607949  0.33622015     0.67300
H270        H  0.64342788  0.66788304  0.30697110     0.16200
H271        H  0.53431427  0.69488454  0.36447901     0.16000
N272        N  0.49120987  0.61653527  0.33649692     0.75000
O273        O  0.71177691  0.74445863  0.35501624    -0.38400
O274        O  0.70519392  0.77066664  0.31509459    -0.38300
O275        O  0.47398782  0.58783362  0.35616609    -0.39000
O276        O  0.46439869  0.62354543  0.32121299    -0.39100
C277        C  0.61572780  0.93852691  0.32120352    -0.11400
C278        C  0.57289717  0.91311177  0.30710780     0.05600
C279        C  0.54885414  0.86354001  0.30854391    -0.06700
C280        C  0.56674454  0.84098097  0.32459005    -0.07400
C281        C  0.60802846  0.86650218  0.33972821    -0.02000
C282        C  0.63367580  0.91563818  0.33719918     0.04800
N283        N  0.67877420  0.94238173  0.34962431     0.67300
H284        H  0.63564135  0.97642376  0.31973756     0.16200
H285        H  0.54692249  0.80306542  0.32627703     0.16000
N286        N  0.50571157  0.83532761  0.29439182     0.75000
O287        O  0.68772789  0.97772100  0.36415518    -0.38400
O288        O  0.71193577  0.93623226  0.34178995    -0.38300
O289        O  0.50522778  0.81296559  0.27314837    -0.39000
O290        O  0.46752188  0.82567968  0.30592411    -0.39100
C291        C  0.54622193  0.66833659  0.44350587    -0.11400
C292        C  0.57299937  0.64595506  0.44429780     0.05600
C293        C  0.61562502  0.66592987  0.42932442    -0.06700
C294        C  0.62997824  0.70712064  0.41397615    -0.07400
C295        C  0.60245990  0.72880123  0.41302125    -0.02000
C296        C  0.56010246  0.70875184  0.42804715     0.04800
N297        N  0.52843436  0.72641225  0.42614854     0.67300
H298        H  0.51331686  0.65397295  0.45460878     0.16200
H299        H  0.66238485  0.72182099  0.40238209     0.16000
N300        N  0.64394295  0.64423172  0.42865969     0.75000
O301        O  0.49157106  0.70348728  0.41223166    -0.38400
O302        O  0.52946026  0.75413794  0.44449075    -0.38300
O303        O  0.64047606  0.61812255  0.40868310    -0.39000
O304        O  0.67788780  0.65782910  0.44504983    -0.39100
C305        C  0.54138169  0.89219601  0.41600460    -0.11400
C306        C  0.57312934  0.92851364  0.43303806     0.05600
C307        C  0.62081434  0.94068242  0.43237105    -0.06700
C308        C  0.63471720  0.91373715  0.41668908    -0.07400
C309        C  0.60223423  0.87595065  0.40074405    -0.02000
C310        C  0.55531111  0.86604996  0.39992081     0.04800
N311        N  0.52047698  0.82787869  0.38421814     0.67300
H312        H  0.50480313  0.88280498  0.41583063     0.16200
H313        H  0.67085200  0.92171215  0.41738819     0.16000
N314        N  0.65511216  0.97883721  0.44830334     0.75000
O315        O  0.50550752  0.78656608  0.39254264    -0.38400
O316        O  0.49615404  0.83558840  0.36727866    -0.38300
O317        O  0.67185484  0.97064427  0.46950213    -0.39000
O318        O  0.67463505  0.01981752  0.43850471    -0.39100
C319        C  0.37395295  0.32080577  0.07323652    -0.11400
C320        C  0.42132486  0.34476424  0.06522576     0.05600
C321        C  0.45134267  0.32866803  0.07406732    -0.06700
C322        C  0.43397255  0.28900387  0.09052403    -0.07400
C323        C  0.38695779  0.26479957  0.09867902    -0.02000
C324        C  0.35650819  0.28052911  0.08986725     0.04800
N325        N  0.30804818  0.25547818  0.09715193     0.67300
H326        H  0.35064085  0.33309360  0.06639961     0.16200
H327        H  0.45746518  0.27681339  0.09698300     0.16000
N328        N  0.49971590  0.35231811  0.06645361     0.75000
O329        O  0.29392553  0.26697360  0.11836279    -0.38400
O330        O  0.28004422  0.21947659  0.08372607    -0.38300
O331        O  0.53045495  0.37212924  0.08477816    -0.39000
O332        O  0.51155423  0.34507798  0.04303776    -0.39100
C333        C  0.38222375  0.31355051  0.19376406    -0.11400
C334        C  0.42799737  0.35080286  0.18950281     0.05600
C335        C  0.45724714  0.34557432  0.17039923    -0.06700
C336        C  0.44075338  0.30354016  0.15606662    -0.07400
C337        C  0.39455914  0.26693523  0.15938416    -0.02000
C338        C  0.36527523  0.27164351  0.17881611     0.04800
N339        N  0.31917671  0.23367837  0.18433891     0.67300
H340        H  0.35988633  0.31678513  0.20902127     0.16200
H341        H  0.46466197  0.29917837  0.14272174     0.16000
N342        N  0.50471095  0.38170615  0.16650143     0.75000
O343        O  0.31407438  0.19954941  0.19875514    -0.38400
O344        O  0.28411277  0.23837513  0.17948427    -0.38300
O345        O  0.53716226  0.37934632  0.17878878    -0.39000
O346        O  0.51463774  0.41112307  0.14740422    -0.39100
C347        C  0.44115359  0.12429483  0.14633142    -0.11400
C348        C  0.39899868  0.12177667  0.15451460     0.05600
C349        C  0.37522991  0.09512782  0.17790494    -0.06700
C350        C  0.39442448  0.07277494  0.19305858    -0.07400
C351        C  0.43641258  0.07506950  0.18482460    -0.02000
C352        C  0.45919339  0.10001003  0.16070878     0.04800
N353        N  0.50163012  0.10273996  0.15119903     0.67300
H354        H  0.46054826  0.14571994  0.12887290     0.16200
H355        H  0.37617800  0.05321071  0.21131770     0.16000
N356        N  0.33155618  0.09050753  0.18651857     0.75000
O357        O  0.49955936  0.07232833  0.13449249    -0.38400
O358        O  0.54009760  0.14007557  0.15468456    -0.38300
O359        O  0.29399871  0.05858324  0.17622068    -0.39000
O360        O  0.32987255  0.11145234  0.20790687    -0.39100
C361        C  0.43319748  0.11807715  0.05353577    -0.11400
C362        C  0.41819142  0.07106115  0.05912659     0.05600
C363        C  0.38704366  0.04873905  0.08126490    -0.06700
C364        C  0.37137980  0.07392852  0.09725893    -0.07400
C365        C  0.38842664  0.12194928  0.09249549    -0.02000
C366        C  0.41994119  0.14391187  0.07028090     0.04800
N367        N  0.44275014  0.19345012  0.06599853     0.67300
H368        H  0.45811565  0.13594322  0.03705237     0.16200
H369        H  0.34697516  0.05630067  0.11397066     0.16000
N370        N  0.37086979  0.00065536  0.08763971     0.75000
O371        O  0.48008976  0.21942951  0.07887834    -0.38400
O372        O  0.43328810  0.20918282  0.04478063    -0.38300
O373        O  0.38520210  0.99033390  0.10911611    -0.39000
O374        O  0.33654208  0.96887527  0.07470264    -0.39100
C375        C  0.72503348  0.15158922  0.17714554    -0.11400
C376        C  0.73647188  0.12749638  0.15743154     0.05600
C377        C  0.70965279  0.07812413  0.15599843    -0.06700
C378        C  0.66981107  0.05440884  0.17272186    -0.07400
C379        C  0.65839863  0.07899179  0.19195746    -0.02000
C380        C  0.68684690  0.12773084  0.19460782     0.04800
N381        N  0.67523294  0.15386569  0.21345727     0.67300
H382        H  0.74476506  0.18955803  0.17826971     0.16200
H383        H  0.64831952  0.01660720  0.17123512     0.16000
N384        N  0.72335849  0.05175342  0.13861840     0.75000
O385        O  0.69570679  0.16601446  0.23638230    -0.38400
O386        O  0.65120190  0.17171893  0.20532497    -0.38300
O387        O  0.76392673  0.05709285  0.14079816    -0.39000
O388        O  0.69303180  0.01802391  0.12456016    -0.39100
C389        C  0.72116003  0.09183422  0.07489354    -0.11400
C390        C  0.72214967  0.12209435  0.09560610     0.05600
C391        C  0.68127936  0.12486034  0.10101364    -0.06700
C392        C  0.64046638  0.09687306  0.08601073    -0.07400
C393        C  0.64037574  0.06864554  0.06439817    -0.02000
C394        C  0.68090319  0.06559209  0.05910567     0.04800
N395        N  0.68169722  0.03609698  0.03772548     0.67300
H396        H  0.75233812  0.08970610  0.07042575     0.16200
H397        H  0.60981852  0.10035236  0.08965701     0.16000
N398        N  0.68179368  0.15914862  0.11945607     0.75000
O399        O  0.69828969  0.05338492  0.01442584    -0.38400
O400        O  0.67379641  0.99538707  0.04350778    -0.38300
O401        O  0.71022619  0.20201174  0.11528137    -0.39000
O402        O  0.64801917  0.14782815  0.13587916    -0.39100
C403        C  0.89416169  0.35296576  0.16262018    -0.11400
C404        C  0.92585391  0.35353716  0.18185927     0.05600
C405        C  0.93414262  0.31557068  0.18336435    -0.06700
C406        C  0.90950622  0.27690556  0.16603422    -0.07400
C407        C  0.87615358  0.27541286  0.14751756    -0.02000
C408        C  0.86816477  0.31380672  0.14607708     0.04800
N409        N  0.83077573  0.31181740  0.13012070     0.67300
H410        H  0.88708517  0.38183474  0.16186708     0.16200
H411        H  0.91557593  0.24745446  0.16742585     0.16000
N412        N  0.96805825  0.31633351  0.20191523     0.75000
O413        O  0.78933929  0.27975420  0.13480280    -0.38400
O414        O  0.83761677  0.34692374  0.11604040    -0.38300
O415        O  0.95485074  0.28992403  0.22274519    -0.39000
O416        O  0.01089208  0.33825947  0.19543143    -0.39100
C417        C  0.83336061  0.44921053  0.32497708    -0.11400
C418        C  0.84251568  0.42066854  0.30737487     0.05600
C419        C  0.80913592  0.37214271  0.30644477    -0.06700
C420        C  0.76841227  0.35354108  0.32288109    -0.07400
C421        C  0.76005044  0.38197716  0.34095308    -0.02000
C422        C  0.79279543  0.43052910  0.34151659     0.04800
N423        N  0.78375325  0.46204015  0.35708773     0.67300
H424        H  0.85773093  0.48659830  0.32579207     0.16200
H425        H  0.74343142  0.31630615  0.32184652     0.16000
N426        N  0.81542231  0.34125694  0.28848919     0.75000
O427        O  0.81348280  0.48882789  0.37446866    -0.38400
O428        O  0.75393687  0.47209924  0.34812813    -0.38300
O429        O  0.82908075  0.31450616  0.29812786    -0.39000
O430        O  0.80030914  0.33536333  0.26415654    -0.39100
C431        C  0.91782755  0.29605636  0.08919668    -0.11400
C432        C  0.86891017  0.27021783  0.08559981     0.05600
C433        C  0.84817851  0.28554931  0.06564887    -0.06700
C434        C  0.87600669  0.32633722  0.05074665    -0.07400
C435        C  0.92409963  0.35325608  0.05551756    -0.02000
C436        C  0.94540509  0.33774648  0.07459622     0.04800
N437        N  0.99494109  0.36291874  0.07858650     0.67300
H438        H  0.93461329  0.28416028  0.10368440     0.16200
H439        H  0.85944966  0.33814247  0.03599764     0.16000
N440        N  0.79868738  0.26194375  0.06118150     0.75000
O441        O  0.01187005  0.38965687  0.09911012    -0.38400
O442        O  0.02051718  0.35182867  0.06476916    -0.38300
O443        O  0.77352984  0.27229516  0.07592939    -0.39000
O444        O  0.78253440  0.24084367  0.03869705    -0.39100
C445        C  0.83784246  0.39183008  0.41827851    -0.11400
C446        C  0.84511509  0.42839612  0.43632145     0.05600
C447        C  0.81011842  0.44121318  0.43811461    -0.06700
C448        C  0.76861833  0.41662573  0.42291899    -0.07400
C449        C  0.76191409  0.38103931  0.40437333    -0.02000
C450        C  0.79715675  0.36828385  0.40202611     0.04800
N451        N  0.79243691  0.33147702  0.38380781     0.67300
H452        H  0.86430009  0.38149465  0.41675811     0.16200
H453        H  0.74189336  0.42646270  0.42502426     0.16000
N454        N  0.81616426  0.47933377  0.45510430     0.75000
O455        O  0.82845618  0.33164733  0.37460670    -0.38400
O456        O  0.75270193  0.29722657  0.37805791    -0.38300
O457        O  0.83422340  0.52003244  0.44500088    -0.39000
O458        O  0.79622963  0.47116886  0.47828316    -0.39100
C459        C  0.86546902  0.56087098  0.15239119    -0.11400
C460        C  0.87839292  0.60837657  0.15317292     0.05600
C461        C  0.91556533  0.63936683  0.17012683    -0.06700
C462        C  0.93845096  0.62204623  0.18665952    -0.07400
C463        C  0.92525124  0.57431832  0.18573280    -0.02000
C464        C  0.88883908  0.54376168  0.16820711     0.04800
N465        N  0.87310124  0.49461510  0.16772992     0.67300
H466        H  0.83574001  0.53652493  0.14028718     0.16200
H467        H  0.96680464  0.64581303  0.19992027     0.16000
N468        N  0.93025219  0.68824491  0.17057447     0.75000
O469        O  0.84697680  0.46861749  0.18678640    -0.38400
O470        O  0.87922950  0.47630306  0.14642266    -0.38300
O471        O  0.92010450  0.70553393  0.19086619    -0.39000
O472        O  0.95009194  0.71338295  0.14976682    -0.39100
C473        C  0.91871368  0.63171609  0.09041147    -0.11400
C474        C  0.86999296  0.60347556  0.09286869     0.05600
C475        C  0.84695013  0.55922478  0.07979542    -0.06700
C476        C  0.87279642  0.54443410  0.06417456    -0.07400
C477        C  0.92126660  0.57289399  0.06143089    -0.02000
C478        C  0.94449890  0.61674739  0.07464143     0.04800
N479        N  0.99389778  0.64671477  0.07167176     0.67300
H480        H  0.93657134  0.66558882  0.10047274     0.16200
H481        H  0.85492740  0.51052346  0.05409583     0.16000
N482        N  0.79755152  0.52845062  0.08278248     0.75000
O483        O  0.00975759  0.67446996  0.05149163    -0.38400
O484        O  0.02059684  0.65139682  0.09144072    -0.38300
O485        O  0.77022810  0.52821167  0.06457757    -0.39000
O486        O  0.78266645  0.49482806  0.09961198    -0.39100
C487        C  0.67653565  0.55419176  0.19397934    -0.11400
C488        C  0.64884804  0.57511285  0.19074351     0.05600
C489        C  0.66295257  0.61278085  0.17233947    -0.06700
C490        C  0.70503122  0.62935951  0.15763283    -0.07400
C491        C  0.73234374  0.60759837  0.16038264    -0.02000
C492        C  0.71727968  0.56915470  0.17856938     0.04800
N493        N  0.74097301  0.54266734  0.18010941     0.67300
H494        H  0.66532133  0.52457138  0.20777513     0.16200
H495        H  0.71594836  0.65860250  0.14361520     0.16000
N496        N  0.63549568  0.63502071  0.16888832     0.75000
O497        O  0.76138308  0.54274014  0.20204170    -0.38400
O498        O  0.73481737  0.51337786  0.16146812    -0.38300
O499        O  0.64240331  0.66883344  0.18426203    -0.39000
O500        O  0.60894125  0.62508745  0.14832245    -0.39100
C501        C  0.68881203  0.55967384  0.10460300    -0.11400
C502        C  0.72567341  0.60512235  0.09934857     0.05400
C503        C  0.72167231  0.63145505  0.07780282    -0.06700
C504        C  0.68152235  0.61153359  0.06143863    -0.07400
C505        C  0.64483185  0.56600088  0.06674708    -0.02000
C506        C  0.64827403  0.54032340  0.08881995     0.04800
N507        N  0.61262518  0.49308693  0.09395219     0.67300
H508        H  0.69231289  0.53824253  0.12026311     0.16200
H509        H  0.67883446  0.63174804  0.04467217     0.16000
N510        N  0.75830702  0.67816490  0.07222826     0.75000
O511        O  0.61406397  0.46011886  0.08150278    -0.38400
O512        O  0.58588945  0.48404478  0.11446747    -0.38300
O513        O  0.78265679  0.68666514  0.05064578    -0.39000
O514        O  0.76126420  0.71172674  0.08640511    -0.39100
C515        C  0.28285434  0.91396397  0.32900996    -0.11400
C516        C  0.27675347  0.87591221  0.34505014     0.05600
C517        C  0.31223524  0.86382143  0.34539400    -0.06700
C518        C  0.35242903  0.88899773  0.32925068    -0.07400
C519        C  0.35805045  0.92607103  0.31234236    -0.02000
C520        C  0.32321410  0.93928013  0.31282318     0.04800
N521        N  0.32684205  0.97633101  0.29579789     0.67300
H522        H  0.25552991  0.92321283  0.32849494     0.16200
H523        H  0.37889339  0.87854917  0.32939499     0.16000
N524        N  0.30700661  0.82464090  0.36097466     0.75000
O525        O  0.31153480  0.96753169  0.27148934    -0.38400
O526        O  0.33762491  0.01548595  0.30639873    -0.38300
O527        O  0.27967064  0.78357372  0.35252836    -0.39000
O528        O  0.33629022  0.83098243  0.37952828    -0.39100
C529        C  0.15301278  0.71194310  0.32701674    -0.11400
C530        C  0.12830961  0.73191270  0.33911044     0.05600
C531        C  0.07922779  0.70897190  0.33633474    -0.06700
C532        C  0.05608114  0.66720458  0.32108907    -0.07400
C533        C  0.08098020  0.64752811  0.30852762    -0.02000
C534        C  0.13015436  0.67022960  0.31213781     0.04800
N535        N  0.15774239  0.65147492  0.30111792     0.67300
H536        H  0.19059620  0.72844170  0.32969341     0.16200
H537        H  0.01843889  0.65053771  0.31875410     0.16000
N538        N  0.05256154  0.72815541  0.34815742     0.75000
O539        O  0.18170899  0.66911878  0.27960279    -0.38400
O540        O  0.16500110  0.62383574  0.31552026    -0.38300
O541        O  0.05734943  0.76617743  0.33896278    -0.39000
O542        O  0.01844080  0.70313638  0.36381537    -0.39100
C543        C  0.31862836  0.87460206  0.44290506    -0.11400
C544        C  0.34950119  0.92222683  0.43799053     0.05600
C545        C  0.33816050  0.94590858  0.41791912    -0.06700
C546        C  0.29672647  0.92123473  0.40277039    -0.07400
C547        C  0.26702745  0.87283212  0.40668150    -0.02000
C548        C  0.27793543  0.84972290  0.42751465     0.04800
N549        N  0.24914748  0.80055214  0.43271898     0.67300
H550        H  0.32648750  0.85615573  0.45858864     0.16200
H551        H  0.28854705  0.93961696  0.38724103     0.16000
N552        N  0.36962324  0.99413491  0.41156214     0.75000
O553        O  0.25137408  0.77124533  0.41690036    -0.38400
O554        O  0.22776420  0.78685720  0.45540139    -0.38300
O555        O  0.40872559  0.00613439  0.40046020    -0.39000
O556        O  0.35799609  0.02466927  0.41648815    -0.39100
C557        C  0.13048553  0.69558762  0.39835796    -0.11400
C558        C  0.11973823  0.73174520  0.40025523     0.05600
C559        C  0.08569081  0.72784371  0.41943855    -0.06700
C560        C  0.06212941  0.68734716  0.43567758    -0.07400
C561        C  0.07338685  0.65143253  0.43386863    -0.02000
C562        C  0.10764938  0.65566210  0.41474143     0.04800
N563        N  0.11951446  0.61956560  0.41152859     0.67300
H564        H  0.15798194  0.69898187  0.38459356     0.16200
H565        H  0.03642397  0.68490252  0.45058134     0.16000
N566        N  0.07606596  0.76532396  0.42346428     0.75000
O567        O  0.09736063  0.58698714  0.39444622    -0.38400
O568        O  0.15703733  0.62490823  0.42175613    -0.38300
O569        O  0.03914855  0.76198936  0.41359951    -0.39000
O570        O  0.09775494  0.79538872  0.44194255    -0.39100
C571        C  0.35581563  0.46398478  0.33462116    -0.11400
C572        C  0.35877235  0.43058727  0.31807172     0.05600
C573        C  0.32343681  0.38304477  0.31991840    -0.06700
C574        C  0.28409793  0.37057431  0.33644979    -0.07400
C575        C  0.28015267  0.40466868  0.35166542    -0.02000
C576        C  0.31697897  0.45150507  0.35133261     0.04800
N577        N  0.31409212  0.48748901  0.36624759     0.67300
H578        H  0.38311835  0.50050214  0.33388838     0.16200
H579        H  0.25580504  0.33448851  0.33672819     0.16000
N580        N  0.32557456  0.34757336  0.30401011     0.75000
O581        O  0.29096684  0.50497871  0.35622087    -0.38400
O582        O  0.34390387  0.50979438  0.38467919    -0.38300
O583        O  0.33869350  0.32146504  0.31520662    -0.39000
O584        O  0.30701269  0.33720884  0.28050511    -0.39100
C585        C  0.29377024  0.37850380  0.40959069    -0.11400
C586        C  0.26888631  0.40273296  0.41304765     0.05600
C587        C  0.28371643  0.43768409  0.43371449    -0.06700
C588        C  0.32366488  0.44909436  0.44900535    -0.07400
C589        C  0.35017867  0.42706563  0.44433482    -0.02000
C590        C  0.33451698  0.39082348  0.42465526     0.04800
N591        N  0.36107956  0.36839711  0.41836649     0.67300
H592        H  0.28240664  0.35081002  0.39442476     0.16200
H593        H  0.33448773  0.47640690  0.46442126     0.16000
N594        N  0.26066949  0.46417927  0.43864124     0.75000
O595        O  0.34989050  0.32930624  0.42915281    -0.38400
O596        O  0.38958301  0.38310720  0.39846277    -0.38300
O597        O  0.23213228  0.45250502  0.45846977    -0.39000
O598        O  0.27960600  0.50577616  0.42987911    -0.39100
C599        C  0.08388400  0.37966221  0.34220857    -0.11400
C600        C  0.13258195  0.40119448  0.33778666     0.05600
C601        C  0.15252019  0.43335713  0.31568322    -0.06700
C602        C  0.12451315  0.44494798  0.29997518    -0.07400
C603        C  0.07684166  0.42630533  0.30581888    -0.02000
C604        C  0.05620227  0.39282568  0.32695708     0.04800
N605        N  0.00843693  0.37508745  0.33479605     0.67300
H606        H  0.06746769  0.35388159  0.35837648     0.16200
H607        H  0.14085011  0.47013762  0.28344551     0.16000
N608        N  0.20157762  0.45723176  0.30970536     0.75000
O609        O  0.97785226  0.33405117  0.32799908    -0.38400
O610        O  0.99828600  0.39736203  0.35208882    -0.38300
O611        O  0.21594883  0.44354329  0.28953091    -0.39000
O612        O  0.22645562  0.49881531  0.31805978    -0.39100
C613        C  0.11262620  0.47060002  0.41552685    -0.11400
C614        C  0.07501840  0.43818700  0.43169576     0.05600
C615        C  0.06077778  0.39002194  0.42977103    -0.06700
C616        C  0.08722406  0.37588857  0.41409670    -0.07400
C617        C  0.12623525  0.40876171  0.39919185    -0.02000
C618        C  0.13806303  0.45627471  0.39911063     0.04800
N619        N  0.17689881  0.49062454  0.38340877     0.67300
H620        H  0.12313417  0.50751945  0.41616580     0.16200
H621        H  0.07775784  0.33923880  0.41384158     0.16000
N622        N  0.02060046  0.35525708  0.44423818     0.75000
O623        O  0.17139422  0.51759306  0.36734215    -0.38400
O624        O  0.21764402  0.49800794  0.38809618    -0.38300
O625        O  0.98149621  0.33466590  0.43223895    -0.39000
O626        O  0.02562845  0.33962205  0.46688117    -0.39100
C627        C  0.20084313  0.62769933  0.09957758    -0.11400
C628        C  0.24137688  0.62765954  0.08963032     0.05600
C629        C  0.23881160  0.61177160  0.06186384    -0.06700
C630        C  0.19609805  0.59101256  0.04751788    -0.07400
C631        C  0.15522320  0.58712625  0.05887059    -0.02000
C632        C  0.15817476  0.60676546  0.08510279     0.04800
N633        N  0.11869863  0.60749813  0.09697997     0.67300
H634        H  0.20198637  0.64507350  0.11866301     0.16200
H635        H  0.19531383  0.57853201  0.02675765     0.16000
N636        N  0.27907953  0.62078433  0.04605658     0.75000
O637        O  0.10113068  0.58612510  0.11924613    -0.38400
O638        O  0.10334456  0.63208447  0.08622547    -0.38300
O639        O  0.28122677  0.58655533  0.03591928    -0.39000
O640        O  0.30125891  0.65998157  0.03408675    -0.39100
C641        C  0.20551063  0.57210098  0.14861348    -0.11400
C642        C  0.23853161  0.61931538  0.15455173     0.05600
C643        C  0.22788255  0.64110031  0.17643445    -0.06700
C644        C  0.18613197  0.61648796  0.19133251    -0.07400
C645        C  0.15267667  0.57062860  0.18459514    -0.02000
C646        C  0.16246385  0.54817837  0.16290407     0.04800
N647        N  0.12966934  0.50089486  0.15557769     0.67300
H648        H  0.21251674  0.55407355  0.13223007     0.16200
H649        H  0.17882967  0.63449397  0.20767257     0.16000
N650        N  0.25609270  0.68959004  0.18243193     0.75000
O651        O  0.10248183  0.49290675  0.13553015    -0.38400
O652        O  0.13378203  0.46779609  0.16566248    -0.38300
O653        O  0.24105946  0.71648869  0.17499850    -0.39000
O654        O  0.28317420  0.70124874  0.20285832    -0.39100
C655        C  0.37509508  0.55573099  0.06508063    -0.11400
C656        C  0.42370686  0.57431539  0.06659823     0.05600
C657        C  0.44970606  0.61253941  0.08433986    -0.06700
C658        C  0.42742740  0.63323762  0.09873590    -0.07400
C659        C  0.37875536  0.61512215  0.09704485    -0.02000
C660        C  0.35176766  0.57382737  0.08115608     0.04800
N661        N  0.30127375  0.54716598  0.08312224     0.67300
H662        H  0.35495704  0.52500439  0.05240838     0.16200
H663        H  0.44822440  0.66320468  0.11179658     0.16000
N664        N  0.49883315  0.63085311  0.08788228     0.75000
O665        O  0.27812471  0.51392040  0.06656132    -0.38400
O666        O  0.28036022  0.55084250  0.10396123    -0.38300
O667        O  0.52758220  0.66883722  0.07633256    -0.39000
O668        O  0.51299564  0.61386787  0.10626777    -0.39100
C669        C  0.37054713  0.57369791  0.15303432    -0.11400
C670        C  0.37357938  0.61650595  0.16089898     0.05600
C671        C  0.39421574  0.63486541  0.18701352    -0.06700
C672        C  0.41447877  0.61315780  0.20248921    -0.07400
C673        C  0.41540959  0.57327163  0.19283493    -0.02000
C674        C  0.39224760  0.55318734  0.16791745     0.04800
N675        N  0.38896102  0.51084438  0.15772543     0.67300
H676        H  0.35053337  0.55496485  0.13524233     0.16200
H677        H  0.43080721  0.62857548  0.22197978     0.16000
N678        N  0.39482792  0.67506422  0.19868629     0.75000
O679        O  0.35893476  0.47192403  0.16777955    -0.38400
O680        O  0.41071988  0.51178133  0.13607906    -0.38300
O681        O  0.37020375  0.67001619  0.21976624    -0.39000
O682        O  0.42757734  0.71544917  0.19252938    -0.39100
C683        C  0.37078290  0.79418996  0.09634476    -0.11400
C684        C  0.38164705  0.75864505  0.09077264     0.05600
C685        C  0.40916314  0.76369068  0.06715857    -0.06700
C686        C  0.42647906  0.80424198  0.05068790    -0.07400
C687        C  0.41801942  0.84092839  0.05750820    -0.02000
C688        C  0.38925192  0.83520118  0.08046451     0.04800
N689        N  0.37692266  0.86998381  0.08736002     0.67300
H690        H  0.34707462  0.78996521  0.11297929     0.16200
H691        H  0.44846422  0.80794757  0.03312852     0.16000
N692        N  0.42208767  0.72936369  0.06030452     0.75000
O693        O  0.34444777  0.87131699  0.07442832    -0.38400
O694        O  0.39264059  0.89369460  0.10910726    -0.38300
O695        O  0.40873451  0.70750511  0.03779467    -0.39000
O696        O  0.45477173  0.72872995  0.07337442    -0.39100
C697        C  0.45567770  0.83488270  0.16841724    -0.11400
C698        C  0.42833880  0.84791757  0.18449517     0.05600
C699        C  0.37937111  0.82004232  0.18333353    -0.06700
C700        C  0.35877140  0.77905589  0.16742160    -0.07400
C701        C  0.38551167  0.76312511  0.15353569    -0.02000
C702        C  0.43483671  0.79272552  0.15303766     0.04800
N703        N  0.46412790  0.78115929  0.13674134     0.67300
H704        H  0.49341589  0.85687053  0.16841553     0.16200
H705        H  0.32219192  0.76153424  0.16429355     0.16000
N706        N  0.34994894  0.83453121  0.19674601     0.75000
O707        O  0.49683158  0.81234793  0.12240623    -0.38400
O708        O  0.45846233  0.74027779  0.13718603    -0.38300
O709        O  0.33737981  0.85980901  0.18399545    -0.39000
O710        O  0.33068093  0.81613203  0.21936336    -0.39100
C711        C  0.33568909  0.66551904  0.59809224     0.46300
H712        H  0.34027379  0.66525683  0.57593419    -0.02700
C713        C  0.33177514  0.66893745  0.65119309     0.46400
H714        H  0.32898897  0.67048874  0.67373497    -0.02700
C715        C  0.35682681  0.63861134  0.61304484    -0.16400
C716        C  0.36194395  0.71606841  0.60924331    -0.16100
C717        C  0.28430482  0.64457044  0.60859462    -0.16500
C718        C  0.35518838  0.64034754  0.64151694    -0.16500
C719        C  0.36060929  0.71803837  0.63746027    -0.16100
C720        C  0.28265202  0.64500279  0.63733881    -0.16400
C721        C  0.15734533  0.39412486  0.88632191     0.03200
C722        C  0.16225177  0.39253610  0.85745895     0.03100
C723        C  0.19916190  0.38707637  0.84743573    -0.17400
C724        C  0.23518652  0.39233087  0.86488438     0.03200
C725        C  0.23016048  0.39376529  0.89371644     0.03100
C726        C  0.18872841  0.39014896  0.90392950    -0.17400
H727        H  0.18304370  0.38918239  0.92590089     0.05200
H728        H  0.20270692  0.38366190  0.82555236     0.05200
C729        C  0.14979995  0.77553842  0.88478842     0.03200
C730        C  0.15557038  0.77515981  0.85590116     0.03100
C731        C  0.19478389  0.81280460  0.84346039    -0.17400
C732        C  0.23153548  0.84653632  0.85936706     0.03200
C733        C  0.22628050  0.84612143  0.88830308     0.03100
C734        C  0.18320743  0.81358480  0.90009084    -0.17400
H735        H  0.17919000  0.81332531  0.92222103     0.05200
H736        H  0.19978041  0.81208484  0.82142147     0.05200
C737        C  0.77055232  0.62062678  0.61353955     0.03200
C738        C  0.77402852  0.62176659  0.64256470     0.03100
C739        C  0.81534315  0.62780030  0.65463131    -0.17400
C740        C  0.84825712  0.62283886  0.63882089     0.03200
C741        C  0.84329318  0.61915762  0.60999770     0.03100
C742        C  0.80697934  0.62265106  0.59761135    -0.17400
H743        H  0.80326558  0.61935891  0.57543011     0.05200
H744        H  0.81818586  0.62863786  0.67686650     0.05200
O745        O  0.07714713  0.49727204  0.96053378    -0.77600
C746        C  0.05113347  0.61112448  0.95281265     0.83400
O747        O  0.07127520  0.54263087  0.55490386    -0.78700
O748        O  0.94394794  0.56039047  0.51806060    -0.80200
O749        O  0.90849328  0.42746776  0.95946665    -0.80000
O750        O  0.00994024  0.42988500  0.95742547    -0.78600
Zn751      Zn  0.06524420  0.53942855  0.98506257     1.55700
O752        O  0.90558399  0.49337967  0.96161580    -0.80000
Cd753      Cd  0.96711069  0.44195274  0.98254861     1.59700
Cd754      Cd  0.00328892  0.50516098  0.53921170     1.59600
O755        O  0.94506567  0.39447003  0.51387172    -0.80000
O756        O  0.00104809  0.50680878  0.99790409    -1.90500
Cd757      Cd  0.96559074  0.53790779  0.98449421     1.59900
O758        O  0.97221922  0.43579423  0.55274029    -0.80000
O759        O  0.00856434  0.59500990  0.96003709    -0.78600
C760        C  0.11076511  0.56354879  0.54257906     0.83900
C761        C  0.05273158  0.45591059  0.95094753     0.83500
O762        O  0.07531586  0.59328261  0.96139021    -0.77600
C763        C  0.88867872  0.45110447  0.95341588     0.84400
O764        O  0.11308395  0.56413932  0.51632793    -0.77700
C765        C  0.94977715  0.39690288  0.53988353     0.84500
C766        C  0.94602926  0.55610233  0.54396841     0.84800
O767        O  0.96636679  0.53584998  0.55500181    -0.80100
O768        O  0.07799706  0.58550707  0.78161490    -0.77600
C769        C  0.05105156  0.44419601  0.78985181     0.83400
O770        O  0.06901608  0.52933970  0.68843157    -0.78700
O771        O  0.94592630  0.38665490  0.72653266    -0.80200
O772        O  0.90699601  0.48628358  0.78487298    -0.80000
O773        O  0.01224480  0.58808058  0.78630035    -0.78600
Zn774      Zn  0.06367385  0.52987047  0.75823512     1.55700
O775        O  0.90374154  0.41709718  0.78208102    -0.80000
Cd776      Cd  0.96677541  0.53183151  0.76173695     1.59700
Cd777      Cd  0.00183749  0.50081133  0.70538799     1.59600
O778        O  0.94607757  0.55827992  0.72928597    -0.80000
O779        O  0.99936145  0.49865429  0.74654849    -1.90500
Cd780      Cd  0.96454731  0.43181285  0.75997800     1.59900
O781        O  0.96899038  0.53615161  0.69138488    -0.80000
O782        O  0.00750861  0.41825502  0.78491818    -0.78600
C783        C  0.10832204  0.54849920  0.70069883     0.83900
C784        C  0.05568213  0.60465531  0.79139610     0.83500
O785        O  0.07437724  0.48584028  0.78061330    -0.77600
C786        C  0.88669870  0.44242504  0.79043644     0.84400
O787        O  0.11062405  0.55161648  0.72683476    -0.77700
C788        C  0.94887643  0.55610620  0.70318834     0.84500
C789        C  0.94770642  0.39371084  0.70064273     0.84800
O790        O  0.96583445  0.43446030  0.69017555    -0.80100
C791        C  0.83967229  0.22912754  0.60364123     0.03200
C792        C  0.84559310  0.23152947  0.63255457     0.03100
C793        C  0.81549800  0.19317309  0.64876596    -0.17400
C794        C  0.77432376  0.15633926  0.63782123     0.03200
C795        C  0.76734790  0.15426300  0.60901529     0.03100
C796        C  0.80257306  0.18829756  0.59223523    -0.17400
H797        H  0.79819663  0.18532012  0.57013044     0.05200
H798        H  0.82039598  0.19539813  0.67089873     0.05200
C799        C  0.38300400  0.15113701  0.64040383     0.03200
C800        C  0.37623007  0.15001558  0.61151187     0.03100
C801        C  0.36525085  0.18236575  0.59986833    -0.17400
C802        C  0.37164465  0.22152409  0.61479659     0.03200
C803        C  0.37923476  0.22325960  0.64345036     0.03100
C804        C  0.38198211  0.18655752  0.65610251    -0.17400
H805        H  0.39008181  0.18926673  0.67786264     0.05200
H806        H  0.35970428  0.18163476  0.57786211     0.05200
C807        C  0.62069628  0.84019047  0.85935651     0.03200
C808        C  0.61624826  0.84357524  0.88812172     0.03100
C809        C  0.61742616  0.81014130  0.90549350    -0.17400
C810        C  0.61607407  0.76986973  0.89468708     0.03200
C811        C  0.62095214  0.76679409  0.86597635     0.03100
C812        C  0.62615189  0.80340066  0.84890373    -0.17400
H813        H  0.62713247  0.79948877  0.82677373     0.05200
H814        H  0.61372594  0.81269340  0.92749597     0.05200
O815        O  0.51260784  0.91696871  0.78207470    -0.77600
C816        C  0.39942844  0.94845044  0.79388962     0.83400
O817        O  0.47656911  0.93038907  0.69090979    -0.78700
O818        O  0.45209042  0.05518443  0.72864842    -0.80200
O819        O  0.58338807  0.08671595  0.79133818    -0.80000
O820        O  0.58089113  0.98263987  0.78694628    -0.78600
Zn821      Zn  0.47002211  0.93278070  0.76057995     1.55700
O822        O  0.52051475  0.09409277  0.78519909    -0.80000
Cd823      Cd  0.56960307  0.03023844  0.76563996     1.59700
Cd824      Cd  0.50845180  0.99744027  0.70808864     1.59600
O825        O  0.61815142  0.05749765  0.73438863    -0.80000
O826        O  0.50514438  0.99791243  0.74933584    -1.90500
Cd827      Cd  0.47461375  0.03404676  0.76247140     1.59900
O828        O  0.57691594  0.03127926  0.69552944    -0.80000
O829        O  0.41676691  0.99134936  0.78689767    -0.78600
C830        C  0.45074936  0.89059483  0.70209333     0.83900
C831        C  0.55444556  0.93883362  0.79113108     0.83500
O832        O  0.41684486  0.92361764  0.78536533    -0.77600
C833        C  0.56117255  0.10875620  0.79550153     0.84400
O834        O  0.44359169  0.88677433  0.72804887    -0.77700
C835        C  0.61548754  0.05411176  0.70828496     0.84500
C836        C  0.45646311  0.05324517  0.70264798     0.84800
O837        O  0.47737580  0.03333767  0.69177698    -0.80100
O838        O  0.41561066  0.48903546  0.78953670    -0.77600
C839        C  0.55281518  0.60154574  0.79912472     0.83400
O840        O  0.45858984  0.53202609  0.69629838    -0.78700
O841        O  0.61020521  0.55481149  0.73318018    -0.80200
O842        O  0.51271972  0.41737246  0.78783759    -0.80000
O843        O  0.41337857  0.42027670  0.79113230    -0.78600
Zn844      Zn  0.46835784  0.53243257  0.76525867     1.55700
O845        O  0.58091609  0.48387878  0.78673713    -0.80000
Cd846      Cd  0.46812921  0.43307484  0.76551050     1.59700
Cd847      Cd  0.49779052  0.50162747  0.71054342     1.59600
O848        O  0.44219491  0.38732163  0.73288851    -0.80000
O849        O  0.49946303  0.49946174  0.75173936    -1.90500
Cd850      Cd  0.56518521  0.52961836  0.76584310     1.59900
O851        O  0.46750074  0.43331282  0.69558630    -0.80000
O852        O  0.57859680  0.58446141  0.79209627    -0.78600
C853        C  0.44000870  0.55292126  0.70891143     0.83900
C854        C  0.39786929  0.44717539  0.79844344     0.83500
O855        O  0.51164991  0.58545447  0.78962764    -0.77600
C856        C  0.55606018  0.44111721  0.79397570     0.84400
O857        O  0.44242178  0.55694846  0.73507802    -0.77700
C858        C  0.44654143  0.39287095  0.70690916     0.84500
C859        C  0.60587486  0.55635743  0.70726383     0.84800
O860        O  0.56615102  0.53952921  0.69542294    -0.80100
O861        O  0.41121547  0.92208526  0.96258024    -0.77600
C862        C  0.55425796  0.95008197  0.95227879     0.83400
O863        O  0.45628752  0.92432234  0.55378926    -0.78700
O864        O  0.60690258  0.05128364  0.52007847    -0.80200
O865        O  0.51118506  0.09074216  0.95951559    -0.80000
O866        O  0.40995549  0.98915689  0.96053245    -0.78600
Zn867      Zn  0.46718079  0.93380999  0.98480288     1.55700
O868        O  0.58000451  0.09395501  0.96342176    -0.80000
Cd869      Cd  0.46690679  0.03300490  0.98399260     1.59700
Cd870      Cd  0.49155404  0.99328452  0.53966910     1.59600
O871        O  0.44211395  0.05526882  0.51645004    -0.80000
O872        O  0.49735283  0.99769831  0.99849584    -1.90500
Cd873      Cd  0.56441977  0.03323473  0.98592805     1.59900
O874        O  0.45420178  0.02432216  0.55427623    -0.80000
O875        O  0.58017393  0.99195165  0.96071223    -0.78600
C876        C  0.44048182  0.88527086  0.54124950     0.83900
C877        C  0.39274301  0.94602430  0.95445472     0.83500
O878        O  0.51163444  0.92563770  0.95996083    -0.77600
C879        C  0.55487713  0.11044305  0.95405628     0.84400
O880        O  0.44391507  0.88373300  0.51515043    -0.77700
C881        C  0.43843084  0.04808701  0.54236312     0.84500
C882        C  0.59951068  0.04721065  0.54597300     0.84800
O883        O  0.55836571  0.02730667  0.55639127    -0.80100
O884        O  0.51256285  0.58356886  0.96971728    -0.77600
C885        C  0.39394720  0.44401863  0.96018685     0.83400
O886        O  0.46613159  0.53287032  0.56200828    -0.78700
O887        O  0.44042856  0.38184213  0.52200867    -0.80200
O888        O  0.57932726  0.48053725  0.96651796    -0.80000
O889        O  0.58003503  0.58403364  0.96595084    -0.78600
Zn890      Zn  0.46801686  0.52835118  0.99249244     1.55700
O891        O  0.51235486  0.41250874  0.96702989    -0.80000
Cd892      Cd  0.56498838  0.52583632  0.98982032     1.59700
Cd893      Cd  0.49614683  0.49483872  0.54538428     1.59600
O894        O  0.60963088  0.54971940  0.52297231    -0.80000
O895        O  0.49878705  0.49442673  0.00413670    -1.90500
Cd896      Cd  0.46692219  0.42830493  0.98938715     1.59900
O897        O  0.56320683  0.52477302  0.56018954    -0.80000
O898        O  0.41060090  0.41702000  0.96490916    -0.78600
C899        C  0.44590385  0.55233883  0.54996997     0.83900
C900        C  0.55448845  0.60206065  0.96070743     0.83500
O901        O  0.41322535  0.48570829  0.96956604    -0.77600
C902        C  0.55525854  0.43728850  0.95977501     0.84400
O903        O  0.44330694  0.55228639  0.52380067    -0.77700
C904        C  0.60357552  0.54565149  0.54895983     0.84500
C905        C  0.44039807  0.38677339  0.54802181     0.84800
O906        O  0.45928398  0.42672205  0.55976955    -0.80100
C907        C  0.66726504  0.33325960  0.84747340     0.46300
H908        H  0.66763779  0.33405802  0.82473241    -0.02700
C909        C  0.66896612  0.33284866  0.90087701     0.46400
H910        H  0.66951955  0.33316645  0.92366139    -0.02700
C911        C  0.64087536  0.35628482  0.86092079    -0.16400
C912        C  0.64413060  0.28315973  0.85969859    -0.16100
C913        C  0.71735856  0.35978061  0.85922222    -0.16500
C914        C  0.64242834  0.35675130  0.88931436    -0.16500
C915        C  0.64507920  0.28292774  0.88821073    -0.16100
C916        C  0.71825623  0.35908051  0.88753342    -0.16400
C917        C  0.61204045  0.44420572  0.92307385    -0.11400
C918        C  0.57779378  0.41603763  0.94247999     0.05600
C919        C  0.56635227  0.36858843  0.94493454    -0.06700
C920        C  0.58848433  0.35044103  0.92797172    -0.07400
C921        C  0.62158237  0.37836217  0.90792529    -0.02000
C922        C  0.63389365  0.42606409  0.90603134     0.04800
N923        N  0.67104809  0.45762359  0.88843827     0.67300
H924        H  0.62225951  0.48092335  0.92116941     0.16200
H925        H  0.57903291  0.31395413  0.93011116     0.16000
N926        N  0.53345643  0.33869655  0.96514411     0.75000
O927        O  0.66305987  0.48036528  0.87045169    -0.38400
O928        O  0.71263189  0.47243193  0.89607839    -0.38300
O929        O  0.49198798  0.30993559  0.95811447    -0.39000
O930        O  0.54785739  0.33499764  0.98850592    -0.39100
C931        C  0.57542443  0.20499070  0.90076526    -0.11400
C932        C  0.62242260  0.23911805  0.90562014     0.05600
C933        C  0.64683632  0.23013599  0.92652952    -0.06700
C934        C  0.62433932  0.18797346  0.94158143    -0.07400
C935        C  0.57736534  0.15409011  0.93684977    -0.02000
C936        C  0.55300408  0.16290366  0.91591118     0.04800
N937        N  0.50632791  0.12836746  0.90863616     0.67300
H938        H  0.55594652  0.21084548  0.88485041     0.16200
H939        H  0.64384143  0.18202022  0.95743937     0.16000
N940        N  0.69500788  0.26225878  0.93229585     0.75000
O941        O  0.47217699  0.13151341  0.91797834    -0.38400
O942        O  0.49987177  0.10047845  0.88908890    -0.38300
O943        O  0.70494822  0.29458252  0.94954301    -0.39000
O944        O  0.72469387  0.24939723  0.92771381    -0.39100
C945        C  0.55109497  0.38638880  0.83114790    -0.11400
C946        C  0.57765009  0.41864879  0.81047226     0.05600
C947        C  0.62444311  0.42934542  0.80638235    -0.06700
C948        C  0.64344924  0.40777186  0.82266982    -0.07400
C949        C  0.61735418  0.37633627  0.84377800    -0.02000
C950        C  0.57019989  0.36515806  0.84780175     0.04800
N951        N  0.54072849  0.33178823  0.86812400     0.67300
H952        H  0.51506092  0.37762910  0.83446209     0.16200
H953        H  0.67927260  0.41621238  0.81897518     0.16000
N954        N  0.65293760  0.46129910  0.78536901     0.75000
O955        O  0.51438067  0.34042329  0.88299997    -0.38400
O956        O  0.53662309  0.29154886  0.86900132    -0.38300
O957        O  0.68607109  0.50126718  0.79193988    -0.39000
O958        O  0.65036200  0.44677530  0.76103744    -0.39100
C959        C  0.57115963  0.18769332  0.80644951    -0.11400
C960        C  0.58348512  0.15330822  0.81194906     0.05600
C961        C  0.61784471  0.16317824  0.83228564    -0.06700
C962        C  0.63750873  0.20567136  0.84705860    -0.07400
C963        C  0.62431368  0.23966601  0.84199201    -0.02000
C964        C  0.59163422  0.23068980  0.82065205     0.04800
N965        N  0.57793594  0.26413833  0.81307589     0.67300
H966        H  0.54590130  0.18163120  0.79046681     0.16200
H967        H  0.66319796  0.21200333  0.86280655     0.16000
N968        N  0.63226814  0.12992696  0.83883919     0.75000
O969        O  0.60111625  0.29375024  0.79462292    -0.38400
O970        O  0.53601880  0.25388806  0.81711487    -0.38300
O971        O  0.67080230  0.13585779  0.82972897    -0.39000
O972        O  0.61087607  0.09975339  0.85734950    -0.39100
C973        C  0.61940445  0.67322540  0.81965761    -0.11400
C974        C  0.57100437  0.64125734  0.81865234     0.05600
C975        C  0.54053091  0.64864035  0.83585312    -0.06700
C976        C  0.55841669  0.68841814  0.85246452    -0.07400
C977        C  0.60630045  0.72133744  0.85246473    -0.02000
C978        C  0.63716866  0.71333549  0.83627996     0.04800
N979        N  0.68629835  0.74612258  0.83606904     0.67300
H980        H  0.64337558  0.66792466  0.80682510     0.16200
H981        H  0.53438428  0.69473975  0.86457009     0.16000
N982        N  0.49125686  0.61635241  0.83662166     0.75000
O983        O  0.71182534  0.74470359  0.85489934    -0.38400
O984        O  0.70512488  0.77055248  0.81488289    -0.38300
O985        O  0.47417946  0.58765465  0.85630204    -0.39000
O986        O  0.46432238  0.62328484  0.82140279    -0.39100
C987        C  0.61571762  0.93845481  0.82119910    -0.11400
C988        C  0.57286072  0.91303692  0.80712901     0.05600
C989        C  0.54882673  0.86346448  0.80855984    -0.06700
C990        C  0.56675240  0.84090927  0.82457998    -0.07400
C991        C  0.60805147  0.86643546  0.83970312    -0.02000
C992        C  0.63369591  0.91557029  0.83717159     0.04800
N993        N  0.67881741  0.94231594  0.84957114     0.67300
H994        H  0.63562846  0.97635148  0.81973121     0.16200
H995        H  0.54693519  0.80299387  0.82627009     0.16000
N996        N  0.50564647  0.83524797  0.79444320     0.75000
O997        O  0.68783091  0.97771476  0.86406031    -0.38400
O998        O  0.71193917  0.93609071  0.84175278    -0.38300
O999        O  0.50507581  0.81273226  0.77325334    -0.39000
O1000       O  0.46749693  0.82573195  0.80597978    -0.39100
C1001       C  0.54628661  0.66831054  0.94349647    -0.11400
C1002       C  0.57307411  0.64594275  0.94429990     0.05600
C1003       C  0.61570105  0.66591671  0.92932787    -0.06700
C1004       C  0.63004285  0.70709461  0.91396681    -0.07400
C1005       C  0.60251271  0.72876331  0.91300452    -0.02000
C1006       C  0.56015438  0.70870897  0.92802808     0.04800
N1007       N  0.52846313  0.72633636  0.92611213     0.67300
H1008       H  0.51337817  0.65394656  0.95459591     0.16200
H1009       H  0.66244785  0.72179371  0.90236999     0.16000
N1010       N  0.64403420  0.64423474  0.92868218     0.75000
O1011       O  0.49160847  0.70337517  0.91219313    -0.38400
O1012       O  0.52944665  0.75404260  0.94445417    -0.38300
O1013       O  0.64057844  0.61810510  0.90871946    -0.39000
O1014       O  0.67796874  0.65784878  0.94508170    -0.39100
C1015       C  0.54132087  0.89202829  0.91603041    -0.11400
C1016       C  0.57309897  0.92845339  0.93299459     0.05600
C1017       C  0.62081202  0.94071775  0.93225441    -0.06700
C1018       C  0.63471457  0.91375328  0.91658851    -0.07400
C1019       C  0.60220958  0.87587564  0.90071002    -0.02000
C1020       C  0.55525941  0.86589349  0.89994268     0.04800
N1021       N  0.52041566  0.82766904  0.88428066     0.67300
H1022       H  0.50472113  0.88256248  0.91590079     0.16200
H1023       H  0.67087582  0.92180503  0.91723607     0.16000
N1024       N  0.65515673  0.97902549  0.94807412     0.75000
O1025       O  0.50519895  0.78641480  0.89278284    -0.38400
O1026       O  0.49622981  0.83537473  0.86723635    -0.38300
O1027       O  0.67231166  0.97104072  0.96915927    -0.39000
O1028       O  0.67432429  0.01997241  0.93824401    -0.39100
C1029       C  0.37409116  0.32086460  0.57330959    -0.11400
C1030       C  0.42145083  0.34480692  0.56527415     0.05600
C1031       C  0.45147450  0.32870829  0.57410499    -0.06700
C1032       C  0.43411425  0.28905061  0.59056941    -0.07400
C1033       C  0.38710432  0.26484757  0.59873462    -0.02000
C1034       C  0.35665679  0.28059174  0.58994229     0.04800
N1035       N  0.30820544  0.25555648  0.59724708     0.67300
H1036       H  0.35077652  0.33315765  0.56648578     0.16200
H1037       H  0.45760596  0.27685121  0.59701445     0.16000
N1038       N  0.49983774  0.35233595  0.56646626     0.75000
O1039       O  0.29411950  0.26704741  0.61847540    -0.38400
O1040       O  0.28016843  0.21958105  0.58381331    -0.38300
O1041       O  0.53061221  0.37193701  0.58479508    -0.39000
O1042       O  0.51161396  0.34524762  0.54299311    -0.39100
C1043       C  0.38231008  0.31345580  0.69381771    -0.11400
C1044       C  0.42808098  0.35071253  0.68956167     0.05600
C1045       C  0.45735355  0.34549133  0.67047236    -0.06700
C1046       C  0.44086846  0.30346636  0.65613136    -0.07400
C1047       C  0.39467104  0.26686208  0.65943912    -0.02000
C1048       C  0.36537777  0.27155301  0.67887083     0.04800
N1049       N  0.31928410  0.23357652  0.68439148     0.67300
H1050       H  0.35996142  0.31668535  0.70906906     0.16200
H1051       H  0.46478097  0.29911124  0.64278564     0.16000
N1052       N  0.50482925  0.38161605  0.66660224     0.75000
O1053       O  0.31419489  0.19943220  0.69878731    -0.38400
O1054       O  0.28421398  0.23827424  0.67956058    -0.38300
O1055       O  0.53724793  0.37925581  0.67893005    -0.39000
O1056       O  0.51480678  0.41103283  0.64749902    -0.39100
C1057       C  0.44101846  0.12404984  0.64631720    -0.11400
C1058       C  0.39888610  0.12158300  0.65449862     0.05600
C1059       C  0.37509823  0.09494459  0.67788903    -0.06700
C1060       C  0.39427395  0.07258582  0.69305691    -0.07400
C1061       C  0.43625594  0.07485625  0.68483338    -0.02000
C1062       C  0.45903255  0.09975288  0.66070552     0.04800
N1063       N  0.50145194  0.10244091  0.65119912     0.67300
H1064       H  0.46043054  0.14546319  0.62885932     0.16200
H1065       H  0.37602490  0.05304659  0.71132201     0.16000
N1066       N  0.33143229  0.09035387  0.68649301     0.75000
O1067       O  0.49935566  0.07202223  0.63448914    -0.38400
O1068       O  0.53994063  0.13974648  0.65469953    -0.38300
O1069       O  0.29387138  0.05844983  0.67618653    -0.39000
O1070       O  0.32975107  0.11130022  0.70788115    -0.39100
C1071       C  0.43322121  0.11806022  0.55353994    -0.11400
C1072       C  0.41807866  0.07099822  0.55907138     0.05600
C1073       C  0.38684890  0.04864382  0.58117022    -0.06700
C1074       C  0.37123846  0.07385107  0.59718856    -0.07400
C1075       C  0.38840944  0.12190610  0.59248163    -0.02000
C1076       C  0.42001291  0.14390253  0.57031068     0.04800
N1077       N  0.44295970  0.19346750  0.56611027     0.67300
H1078       H  0.45821238  0.13594509  0.53709185     0.16200
H1079       H  0.34677309  0.05620700  0.61387194     0.16000
N1080       N  0.37053698  0.00050970  0.58747716     0.75000
O1081       O  0.48019554  0.21932179  0.57911193    -0.38400
O1082       O  0.43371634  0.20936289  0.54488251    -0.38300
O1083       O  0.38468542  0.99003084  0.60897135    -0.39000
O1084       O  0.33627550  0.96883789  0.57444124    -0.39100
C1085       C  0.72484743  0.15169934  0.67725482    -0.11400
C1086       C  0.73634211  0.12765059  0.65753988     0.05600
C1087       C  0.70963269  0.07827105  0.65613014    -0.06700
C1088       C  0.66981196  0.05449478  0.67285922    -0.07400
C1089       C  0.65832490  0.07903408  0.69208184    -0.02000
C1090       C  0.68668688  0.12778393  0.69472673     0.04800
N1091       N  0.67500084  0.15386339  0.71357686     0.67300
H1092       H  0.74450024  0.18967135  0.67836656     0.16200
H1093       H  0.64839289  0.01668450  0.67138392     0.16000
N1094       N  0.72343377  0.05195903  0.63876774     0.75000
O1095       O  0.69552929  0.16611938  0.73648200    -0.38400
O1096       O  0.65079770  0.17153828  0.70546565    -0.38300
O1097       O  0.76401916  0.05735640  0.64098851    -0.39000
O1098       O  0.69316839  0.01820958  0.62469466    -0.39100
C1099       C  0.72104085  0.09190278  0.57495266    -0.11400
C1100       C  0.72195766  0.12207537  0.59570179     0.05600
C1101       C  0.68102692  0.12472314  0.60113641    -0.06700
C1102       C  0.64023404  0.09669885  0.58612073    -0.07400
C1103       C  0.64022871  0.06859173  0.56445912    -0.02000
C1104       C  0.68081655  0.06566013  0.55914182     0.04800
N1105       N  0.68172102  0.03631961  0.53769860     0.67300
H1106       H  0.75226360  0.08986827  0.57046250     0.16200
H1107       H  0.60953246  0.10007450  0.58979103     0.16000
N1108       N  0.68143607  0.15890047  0.61963689     0.75000
O1109       O  0.69837155  0.05376750  0.51443651    -0.38400
O1110       O  0.67390132  0.99560912  0.54339915    -0.38300
O1111       O  0.71006107  0.20178531  0.61567298    -0.39000
O1112       O  0.64754793  0.14749705  0.63598376    -0.39100
C1113       C  0.89453522  0.35342057  0.66237431    -0.11400
C1114       C  0.92581602  0.35373344  0.68183179     0.05600
C1115       C  0.93370106  0.31552427  0.68352753    -0.06700
C1116       C  0.90908725  0.27690385  0.66616935    -0.07400
C1117       C  0.87608141  0.27564050  0.64745853    -0.02000
C1118       C  0.86849923  0.31427993  0.64581918     0.04800
N1119       N  0.83144116  0.31257862  0.62965614     0.67300
H1120       H  0.88775504  0.38247520  0.66146574     0.16200
H1121       H  0.91484720  0.24727161  0.66771920     0.16000
N1122       N  0.96713401  0.31594906  0.70233973     0.75000
O1123       O  0.78984168  0.28079343  0.63423864    -0.38400
O1124       O  0.83875499  0.34770651  0.61543695    -0.38300
O1125       O  0.95336772  0.28959847  0.72319252    -0.39000
O1126       O  0.01007261  0.33749639  0.69609227    -0.39100
C1127       C  0.83341163  0.44925384  0.82504634    -0.11400
C1128       C  0.84254654  0.42074039  0.80740863     0.05600
C1129       C  0.80913967  0.37222560  0.80643222    -0.06700
C1130       C  0.76841636  0.35360182  0.82286842    -0.07400
C1131       C  0.76007642  0.38200701  0.84097756    -0.02000
C1132       C  0.79283939  0.43055240  0.84157907     0.04800
N1133       N  0.78380481  0.46204059  0.85718040     0.67300
H1134       H  0.85780119  0.48663486  0.82589260     0.16200
H1135       H  0.74341786  0.31637432  0.82180326     0.16000
N1136       N  0.81539375  0.34137832  0.78842522     0.75000
O1137       O  0.81356582  0.48884364  0.87454290    -0.38400
O1138       O  0.75392979  0.47205507  0.84826876    -0.38300
O1139       O  0.82899431  0.31455005  0.79801490    -0.39000
O1140       O  0.80030466  0.33559759  0.76409065    -0.39100
C1141       C  0.91769185  0.29590553  0.58911958    -0.11400
C1142       C  0.86877898  0.27009246  0.58550793     0.05600
C1143       C  0.84809935  0.28532466  0.56546396    -0.06700
C1144       C  0.87597206  0.32604004  0.55051214    -0.07400
C1145       C  0.92404881  0.35299297  0.55533403    -0.02000
C1146       C  0.94530827  0.33753476  0.57447696     0.04800
N1147       N  0.99483496  0.36271033  0.57850438     0.67300
H1148       H  0.93443770  0.28406168  0.60366923     0.16200
H1149       H  0.85944950  0.33780112  0.53571198     0.16000
N1150       N  0.79861189  0.26172876  0.56097170     0.75000
O1151       O  0.01172224  0.38952575  0.59899988    -0.38400
O1152       O  0.02042780  0.35153368  0.56477332    -0.38300
O1153       O  0.77338814  0.27188772  0.57579381    -0.39000
O1154       O  0.78248061  0.24071565  0.53846203    -0.39100
C1155       C  0.83790718  0.39179455  0.91827095    -0.11400
C1156       C  0.84516547  0.42833010  0.93633309     0.05600
C1157       C  0.81015752  0.44112709  0.93815190    -0.06700
C1158       C  0.76865598  0.41654846  0.92296091    -0.07400
C1159       C  0.76196237  0.38099586  0.90439321    -0.02000
C1160       C  0.79721903  0.36826212  0.90201866     0.04800
N1161       N  0.79251255  0.33149522  0.88377109     0.67300
H1162       H  0.86437939  0.38148074  0.91673308     0.16200
H1163       H  0.74191989  0.42636562  0.92508840     0.16000
N1164       N  0.81619174  0.47921570  0.95516793     0.75000
O1165       O  0.82853916  0.33171260  0.87454124    -0.38400
O1166       O  0.75278416  0.29723592  0.87801929    -0.38300
O1167       O  0.83414316  0.51991236  0.94507286    -0.39000
O1168       O  0.79635538  0.47101236  0.97837854    -0.39100
C1169       C  0.86530102  0.56086554  0.65268190    -0.11400
C1170       C  0.87839053  0.60841649  0.65327763     0.05600
C1171       C  0.91576183  0.63953067  0.67007273    -0.06700
C1172       C  0.93871850  0.62229988  0.68661745    -0.07400
C1173       C  0.92536292  0.57452474  0.68586318    -0.02000
C1174       C  0.88873439  0.54383885  0.66850349     0.04800
N1175       N  0.87289928  0.49467028  0.66818073     0.67300
H1176       H  0.83541721  0.53644179  0.64071047     0.16200
H1177       H  0.96723225  0.64616166  0.69975415     0.16000
N1178       N  0.93057884  0.68843900  0.67034760     0.75000
O1179       O  0.84671928  0.46884936  0.68727417    -0.38400
O1180       O  0.87906867  0.47616733  0.64697521    -0.38300
O1181       O  0.92011256  0.70587760  0.69042655    -0.39000
O1182       O  0.95072801  0.71341628  0.64953748    -0.39100
C1183       C  0.91862583  0.63183430  0.59021588    -0.11400
C1184       C  0.86999114  0.60329935  0.59298001     0.05600
C1185       C  0.84705771  0.55876286  0.58023315    -0.06700
C1186       C  0.87293559  0.54394276  0.56466248    -0.07400
C1187       C  0.92129792  0.57272617  0.56156294    -0.02000
C1188       C  0.94441598  0.61689731  0.57442055     0.04800
N1189       N  0.99368571  0.64720393  0.57106138     0.67300
H1190       H  0.93639302  0.66593358  0.60002025     0.16200
H1191       H  0.85515121  0.50981624  0.55482895     0.16000
N1192       N  0.79773445  0.52779325  0.58343830     0.75000
O1193       O  0.00888920  0.67443614  0.55062203    -0.38400
O1194       O  0.02090180  0.65268939  0.59069244    -0.38300
O1195       O  0.77005175  0.52786667  0.56559197    -0.39000
O1196       O  0.78327122  0.49368654  0.59988819    -0.39100
C1197       C  0.67651484  0.55420383  0.69402389    -0.11400
C1198       C  0.64876639  0.57504542  0.69072611     0.05600
C1199       C  0.66282281  0.61263386  0.67226676    -0.06700
C1200       C  0.70491005  0.62920944  0.65756753    -0.07400
C1201       C  0.73228288  0.60752293  0.66037960    -0.02000
C1202       C  0.71727080  0.56916387  0.67862683     0.04800
N1203       N  0.74103942  0.54275854  0.68025275     0.67300
H1204       H  0.66534471  0.52464628  0.70786450     0.16200
H1205       H  0.71579150  0.65839688  0.64351135     0.16000
N1206       N  0.63531794  0.63480944  0.66875774     0.75000
O1207       O  0.76150219  0.54301417  0.70220110    -0.38400
O1208       O  0.73486972  0.51333689  0.66169405    -0.38300
O1209       O  0.64211054  0.66859067  0.68412612    -0.39000
O1210       O  0.60885736  0.62487108  0.64814627    -0.39100
C1211       C  0.68878323  0.55953861  0.60457378    -0.11400
C1212       C  0.72566748  0.60498058  0.59933687     0.05400
C1213       C  0.72170956  0.63135282  0.57780015    -0.06700
C1214       C  0.68157868  0.61147425  0.56141955    -0.07400
C1215       C  0.64486031  0.56594843  0.56670942    -0.02000
C1216       C  0.64826089  0.54023196  0.58877593     0.04800
N1217       N  0.61258082  0.49300030  0.59388631     0.67300
H1218       H  0.69225103  0.53808922  0.62023719     0.16200
H1219       H  0.67892080  0.63172050  0.54466139     0.16000
N1220       N  0.75836038  0.67807123  0.57226359     0.75000
O1221       O  0.61404521  0.46002488  0.58146313    -0.38400
O1222       O  0.58574269  0.48396539  0.61435007    -0.38300
O1223       O  0.78274125  0.68662138  0.55069075    -0.39000
O1224       O  0.76136288  0.71159833  0.58649651    -0.39100
C1225       C  0.28294321  0.91405305  0.82913002    -0.11400
C1226       C  0.27686548  0.87603356  0.84519150     0.05600
C1227       C  0.31238836  0.86400372  0.84558760    -0.06700
C1228       C  0.35258117  0.88917433  0.82944432    -0.07400
C1229       C  0.35816491  0.92619599  0.81250153    -0.02000
C1230       C  0.32331420  0.93938357  0.81295974     0.04800
N1231       N  0.32694628  0.97643324  0.79593223     0.67300
H1232       H  0.25559631  0.92326906  0.82858931     0.16200
H1233       H  0.37907079  0.87876011  0.82961342     0.16000
N1234       N  0.30720503  0.82489367  0.86122426     0.75000
O1235       O  0.31146318  0.96759906  0.77166159    -0.38400
O1236       O  0.33792349  0.01565065  0.80651397    -0.38300
O1237       O  0.28000932  0.78379130  0.85277799    -0.39000
O1238       O  0.33641575  0.83135217  0.87984841    -0.39100
C1239       C  0.15311433  0.71179216  0.82731101    -0.11400
C1240       C  0.12846650  0.73197511  0.83921137     0.05600
C1241       C  0.07942977  0.70923508  0.83627080    -0.06700
C1242       C  0.05626185  0.66744872  0.82104769    -0.07400
C1243       C  0.08110008  0.64753995  0.80868137    -0.02000
C1244       C  0.13022504  0.67002513  0.81247860     0.04800
N1245       N  0.15771333  0.65095824  0.80173409     0.67300
H1246       H  0.19065822  0.72814617  0.83012634     0.16200
H1247       H  0.01865913  0.65095938  0.81857109     0.16000
N1248       N  0.05284539  0.72866240  0.84789259     0.75000
O1249       O  0.18214790  0.66852817  0.78036372    -0.38400
O1250       O  0.16438580  0.62306292  0.81627046    -0.38300
O1251       O  0.05764510  0.76653630  0.83843253    -0.39000
O1252       O  0.01873951  0.70391946  0.86362271    -0.39100
C1253       C  0.31853913  0.87477626  0.94306640    -0.11400
C1254       C  0.34950140  0.92235577  0.93808599     0.05600
C1255       C  0.33822753  0.94603126  0.91797748    -0.06700
C1256       C  0.29676536  0.92138793  0.90285206    -0.07400
C1257       C  0.26699159  0.87300839  0.90680928    -0.02000
C1258       C  0.27783022  0.84991571  0.92768824     0.04800
N1259       N  0.24897937  0.80076747  0.93293533     0.67300
H1260       H  0.32635457  0.85634423  0.95878122     0.16200
H1261       H  0.28864082  0.93976296  0.88729026     0.16000
N1262       N  0.36980466  0.99419789  0.91154299     0.75000
O1263       O  0.25111190  0.77138658  0.91713614    -0.38400
O1264       O  0.22761058  0.78715681  0.95562726    -0.38300
O1265       O  0.40884801  0.00601127  0.90041777    -0.39000
O1266       O  0.35833894  0.02486385  0.91642522    -0.39100
C1267       C  0.13064078  0.69578432  0.89847299    -0.11400
C1268       C  0.11980084  0.73188088  0.90033060     0.05600
C1269       C  0.08566646  0.72791072  0.91946864    -0.06700
C1270       C  0.06209664  0.68738993  0.93568843    -0.07400
C1271       C  0.07343145  0.65152588  0.93390639    -0.02000
C1272       C  0.10778790  0.65583337  0.91482958     0.04800
N1273       N  0.11972398  0.61978456  0.91163356     0.67300
H1274       H  0.15821835  0.69924220  0.88475808     0.16200
H1275       H  0.03632342  0.68488890  0.95055886     0.16000
N1276       N  0.07597087  0.76534772  0.92347873     0.75000
O1277       O  0.09767673  0.58724074  0.89451401    -0.38400
O1278       O  0.15722967  0.62516152  0.92190790    -0.38300
O1279       O  0.03894717  0.76187231  0.91368990    -0.39000
O1280       O  0.09771153  0.79549973  0.94190671    -0.39100
C1281       C  0.35577625  0.46390031  0.83462339    -0.11400
C1282       C  0.35874601  0.43048239  0.81810279     0.05600
C1283       C  0.32341896  0.38293931  0.81997321    -0.06700
C1284       C  0.28405882  0.37049323  0.83648216    -0.07400
C1285       C  0.28009783  0.40461132  0.85166318    -0.02000
C1286       C  0.31692941  0.45144673  0.85131830     0.04800
N1287       N  0.31404922  0.48745689  0.86620726     0.67300
H1288       H  0.38307731  0.50041775  0.83387817     0.16200
H1289       H  0.25577515  0.33440371  0.83678097     0.16000
N1290       N  0.32560532  0.34743553  0.80412721     0.75000
O1291       O  0.29080467  0.50483037  0.85620146    -0.38400
O1292       O  0.34396566  0.50990221  0.88456427    -0.38300
O1293       O  0.33892297  0.32151239  0.81535712    -0.39000
O1294       O  0.30689209  0.33684069  0.78066741    -0.39100
C1295       C  0.29374875  0.37855570  0.90962127    -0.11400
C1296       C  0.26891745  0.40284429  0.91303641     0.05600
C1297       C  0.28381758  0.43789103  0.93364661    -0.06700
C1298       C  0.32377412  0.44931572  0.94893490    -0.07400
C1299       C  0.35022386  0.42720048  0.94431604    -0.02000
C1300       C  0.33449818  0.39088119  0.92468295     0.04800
N1301       N  0.36098915  0.36836068  0.91844339     0.67300
H1302       H  0.28233469  0.35079992  0.89449271     0.16200
H1303       H  0.33464652  0.47669701  0.96430966     0.16000
N1304       N  0.26082496  0.46445454  0.93851592     0.75000
O1305       O  0.34977837  0.32932073  0.92930933    -0.38400
O1306       O  0.38944963  0.38292912  0.89851714    -0.38300
O1307       O  0.23233234  0.45291695  0.95835963    -0.39000
O1308       O  0.27975591  0.50599416  0.92965885    -0.39100
C1309       C  0.08380726  0.37960353  0.84223453    -0.11400
C1310       C  0.13249342  0.40106332  0.83778055     0.05600
C1311       C  0.15241720  0.43314981  0.81563936    -0.06700
C1312       C  0.12441863  0.44475578  0.79993454    -0.07400
C1313       C  0.07677799  0.42621792  0.80582323    -0.02000
C1314       C  0.05614383  0.39280484  0.82699388     0.04800
N1315       N  0.00842539  0.37521238  0.83488916     0.67300
H1316       H  0.06739526  0.35387585  0.85842886     0.16200
H1317       H  0.14074340  0.46989117  0.78337779     0.16000
N1318       N  0.20146015  0.45695108  0.80962371     0.75000
O1319       O  0.97776696  0.33411429  0.82825184    -0.38400
O1320       O  0.99839774  0.39772561  0.85207770    -0.38300
O1321       O  0.21575412  0.44317798  0.78945224    -0.39000
O1322       O  0.22640264  0.49854856  0.81794050    -0.39100
C1323       C  0.11253810  0.47058141  0.91549311    -0.11400
C1324       C  0.07497674  0.43818193  0.93169697     0.05600
C1325       C  0.06076714  0.39002144  0.92979622    -0.06700
C1326       C  0.08722282  0.37589192  0.91412741    -0.07400
C1327       C  0.12619347  0.40875587  0.89918993    -0.02000
C1328       C  0.13796794  0.45625321  0.89907122     0.04800
N1329       N  0.17674279  0.49058690  0.88332390     0.67300
H1330       H  0.12301731  0.50749459  0.91610883     0.16200
H1331       H  0.07778658  0.33925007  0.91389427     0.16000
N1332       N  0.02059740  0.35525625  0.94426903     0.75000
O1333       O  0.17116000  0.51748959  0.86724399    -0.38400
O1334       O  0.21751327  0.49801058  0.88796996    -0.38300
O1335       O  0.98144220  0.33483361  0.93231957    -0.39000
O1336       O  0.02565535  0.33943444  0.96683499    -0.39100
C1337       C  0.20073519  0.62760320  0.59961676    -0.11400
C1338       C  0.24131662  0.62767578  0.58964904     0.05600
C1339       C  0.23879300  0.61191917  0.56185407    -0.06700
C1340       C  0.19606611  0.59107036  0.54751993    -0.07400
C1341       C  0.15514942  0.58705685  0.55889174    -0.02000
C1342       C  0.15806793  0.60664851  0.58513531     0.04800
N1343       N  0.11856703  0.60734125  0.59700799     0.67300
H1344       H  0.20184316  0.64492170  0.61871796     0.16200
H1345       H  0.19531670  0.57867957  0.52674009     0.16000
N1346       N  0.27911501  0.62128542  0.54599209     0.75000
O1347       O  0.10101976  0.58598311  0.61928063    -0.38400
O1348       O  0.10316408  0.63187632  0.58623987    -0.38300
O1349       O  0.28146252  0.58728013  0.53567233    -0.39000
O1350       O  0.30121300  0.66066145  0.53420873    -0.39100
C1351       C  0.20545954  0.57209180  0.64862287    -0.11400
C1352       C  0.23851415  0.61928605  0.65458849     0.05600
C1353       C  0.22791828  0.64103281  0.67651923    -0.06700
C1354       C  0.18618067  0.61640833  0.69142506    -0.07400
C1355       C  0.15268155  0.57058959  0.68465054    -0.02000
C1356       C  0.16241310  0.54817202  0.66291564     0.04800
N1357       N  0.12955710  0.50093321  0.65553848     0.67300
H1358       H  0.21243090  0.55408835  0.63220907     0.16200
H1359       H  0.17892077  0.63438779  0.70780024     0.16000
N1360       N  0.25615778  0.68948933  0.68257076     0.75000
O1361       O  0.10234201  0.49306564  0.63552124    -0.38400
O1362       O  0.13364119  0.46776156  0.66553346    -0.38300
O1363       O  0.24108164  0.71642056  0.67526459    -0.39000
O1364       O  0.28331167  0.70106350  0.70295893    -0.39100
C1365       C  0.37506301  0.55582696  0.56497624    -0.11400
C1366       C  0.42364851  0.57427452  0.56659015     0.05600
C1367       C  0.44961191  0.61235782  0.58443150    -0.06700
C1368       C  0.42734052  0.63305874  0.59883341    -0.07400
C1369       C  0.37869621  0.61506819  0.59705444    -0.02000
C1370       C  0.35172924  0.57391436  0.58105421     0.04800
N1371       N  0.30122128  0.54738241  0.58289606     0.67300
H1372       H  0.35493615  0.52520284  0.55222606     0.16200
H1373       H  0.44811822  0.66293237  0.61196290     0.16000
N1374       N  0.49870074  0.63053977  0.58806147     0.75000
O1375       O  0.27809720  0.51440358  0.56617318    -0.38400
O1376       O  0.28024194  0.55082331  0.60377516    -0.38300
O1377       O  0.52757949  0.66854114  0.57657908    -0.39000
O1378       O  0.51269363  0.61341967  0.60646185    -0.39100
C1379       C  0.37035794  0.57355876  0.65305811    -0.11400
C1380       C  0.37350035  0.61642538  0.66090190     0.05600
C1381       C  0.39420757  0.63481804  0.68699564    -0.06700
C1382       C  0.41442371  0.61307307  0.70247885    -0.07400
C1383       C  0.41523649  0.57311205  0.69285270    -0.02000
C1384       C  0.39199101  0.55299034  0.66795941     0.04800
N1385       N  0.38854053  0.51054871  0.65781892     0.67300
H1386       H  0.35032138  0.55484315  0.63526377     0.16200
H1387       H  0.43082719  0.62853007  0.72194720     0.16000
N1388       N  0.39499392  0.67513086  0.69862161     0.75000
O1389       O  0.35843934  0.47170355  0.66791877    -0.38400
O1390       O  0.41021441  0.51132987  0.63616724    -0.38300
O1391       O  0.37053988  0.67026678  0.71975398    -0.39000
O1392       O  0.42774399  0.71544865  0.69234656    -0.39100
C1393       C  0.37076778  0.79416683  0.59636996    -0.11400
C1394       C  0.38160325  0.75860703  0.59078219     0.05600
C1395       C  0.40907147  0.76363299  0.56714716    -0.06700
C1396       C  0.42636197  0.80417614  0.55067062    -0.07400
C1397       C  0.41793428  0.84087854  0.55750660    -0.02000
C1398       C  0.38921735  0.83517191  0.58048670     0.04800
N1399       N  0.37692763  0.86997392  0.58740737     0.67300
H1400       H  0.34708951  0.78995862  0.61302885     0.16200
H1401       H  0.44831056  0.80786558  0.53309441     0.16000
N1402       N  0.42196773  0.72929043  0.56027489     0.75000
O1403       O  0.34442907  0.87131897  0.57451076    -0.38400
O1404       O  0.39270667  0.89368999  0.60914769    -0.38300
O1405       O  0.40866109  0.70749771  0.53774229    -0.39000
O1406       O  0.45454540  0.72852327  0.57338876    -0.39100
C1407       C  0.45563113  0.83490575  0.66842423    -0.11400
C1408       C  0.42825954  0.84782456  0.68457585     0.05600
C1409       C  0.37933679  0.81990237  0.68345019    -0.06700
C1410       C  0.35857867  0.77887689  0.66747792    -0.07400
C1411       C  0.38551621  0.76310915  0.65354907    -0.02000
C1412       C  0.43479596  0.79275988  0.65301548     0.04800
N1413       N  0.46411762  0.78131583  0.63665356     0.67300
H1414       H  0.49327315  0.85690443  0.66838867     0.16200
H1415       H  0.32302439  0.76182810  0.66443864     0.16000
N1416       N  0.34984905  0.83424910  0.69694470     0.75000
O1417       O  0.49684489  0.81260583  0.62238147    -0.38400
O1418       O  0.45844186  0.74042753  0.63697508    -0.38300
O1419       O  0.33703543  0.85935934  0.68423052    -0.39000
O1420       O  0.33080194  0.81588391  0.71960932    -0.39100
loop_ 
_geom_bond_atom_site_label_1 
_geom_bond_atom_site_label_2 
_geom_bond_distance 
_geom_bond_site_symmetry_2 
_ccdc_geom_bond_type 
C1            H2   1.088       .  S
C1            C7   1.559       .  S
C1            C6   1.540       .  S
C1            C5   1.554       .  S
C3            H4   1.102       .  S
C3            C9   1.557       .  S
C3            C8   1.554       .  S
C3           C10   1.558       .  S
C5            C8   1.387       .  D
C5          C659   1.506       .  S
C6            C9   1.374       .  D
C6          C684   1.509       .  S
C7           C10   1.398       .  D
C7          C628   1.544       .  S
C8          C670   1.533       .  S
C9          C701   1.506       .  S
C10         C642   1.516       .  S
C11          C12   1.415       .  A
C11          C16   1.400       .  A
C11         C617   1.469       .  S
C12          C13   1.399       .  A
C12         C600   1.495       .  S
C13          C14   1.400       .  A
C13          H18   1.081       .  S
C14          C15   1.414       .  A
C14         C575   1.470       .  S
C15          C16   1.398       .  A
C15         C586   1.493       .  S
C16          H17   1.081       .  S
C19          C20   1.417       .  A
C19          C24   1.400       .  A
C19         C558   1.481       .  S
C20          C21   1.404       .  A
C20         C530   1.487       .  S
C21          C22   1.400       .  A
C21          H26   1.085       .  S
C22          C23   1.416       .  A
C22         C516   1.482       .  S
C23          C24   1.403       .  A
C23         C547   1.488       .  S
C24          H25   1.083       .  S
C27          C28   1.415       .  A
C27          C32   1.398       .  A
C27         C502   1.475       .  S
C28          C29   1.404       .  A
C28         C491   1.486       .  S
C29          C30   1.400       .  A
C29          H34   1.084       .  S
C30          C31   1.409       .  A
C30         C460   1.476       .  S
C31          C32   1.396       .  A
C31         C474   1.475       .  S
C32          H33   1.085       .  S
O35          C51   1.274       .  A
O35         Zn41   2.006       .  S
C36         C561   1.475       .  S
C36          O52   1.273       .  A
C36          O49   1.275       .  A
O37          C50   1.275       .  A
O37         Cd44   2.091       .  S
O38          C56   1.273       .  A
O38        Cd757   2.053   1_554  S
O39          C53   1.274       .  A
O39         Cd43   2.076       .  S
O40          C51   1.270       .  A
O40         Cd43   2.043   1_455  S
Zn41         O52   1.997       .  S
Zn41        O764   2.048       .  S
Zn41         O46   1.934       .  S
O42          C53   1.277       .  A
O42         Cd47   2.102       .  S
Cd43        O755   2.041       .  S
Cd43         O46   1.995   1_655  S
Cd44         O48   2.087   1_455  S
Cd44         O57   2.072   1_455  S
Cd44        O756   2.012   1_554  S
O45          C55   1.272       .  A
O45        Cd753   2.041   1_554  S
O46         Cd47   2.008   1_455  S
O46        Cd754   2.012       .  S
Cd47         O49   2.071   1_655  S
Cd47        O748   2.053       .  S
O48          C55   1.277       .  A
C50         C631   1.498       .  S
C50          O54   1.278       .  A
C51         C614   1.472       .  S
C53         C446   1.497       .  S
O54        Zn751   2.048   1_554  S
C55         C435   1.465       .  S
C56         C477   1.459       .  S
C56          O57   1.276       .  A
O58          C74   1.272       .  A
O58         Zn64   1.998       .  S
C59         C603   1.475       .  S
C59          O75   1.272       .  A
C59          O72   1.275       .  A
O60          C73   1.273       .  A
O60         Cd67   2.091       .  S
O61          C79   1.276       .  A
O61         Cd70   2.077       .  S
O62          C76   1.280       .  A
O62         Cd66   2.106       .  S
O63          C74   1.277       .  A
O63         Cd66   2.082   1_455  S
Zn64         O75   1.980       .  S
Zn64         O77   2.028       .  S
Zn64         O69   1.924   1_455  S
O65          C76   1.279       .  A
O65         Cd70   2.101       .  S
Cd66         O68   2.077       .  S
Cd66         O69   2.010       .  S
Cd67         O71   2.060   1_455  S
Cd67         O80   2.034   1_455  S
Cd67         O69   2.002   1_455  S
O68          C78   1.276       .  A
O69         Cd70   2.015       .  S
Cd70         O72   2.077   1_655  S
O71          C78   1.275       .  A
C73         C645   1.485       .  S
C73          O77   1.274       .  A
C74         C533   1.490       .  S
C76         C418   1.504       .  S
C78         C463   1.466       .  S
C79         C404   1.463       .  S
C79          O80   1.270       .  A
C81          C82   1.416       .  A
C81          C86   1.404       .  A
C81         C432   1.491       .  S
C82          C83   1.395       .  A
C82         C407   1.479       .  S
C83          C84   1.399       .  A
C83          H88   1.085       .  S
C84          C85   1.416       .  A
C84         C376   1.480       .  S
C85          C86   1.402       .  A
C85         C390   1.484       .  S
C86          H87   1.082       .  S
C89          C90   1.420       .  A
C89          C94   1.405       .  A
C89         C348   1.482       .  S
C90          C91   1.403       .  A
C90         C365   1.494       .  S
C91          C92   1.398       .  A
C91          H96   1.084       .  S
C92          C93   1.412       .  A
C92         C323   1.475       .  S
C93          C94   1.398       .  A
C93         C337   1.480       .  S
C94          H95   1.084       .  S
C97          C98   1.415       .  A
C97         C102   1.402       .  A
C97         C281   1.481       .  S
C98          C99   1.403       .  A
C98         C309   1.483       .  S
C99         C100   1.403       .  A
C99         H104   1.084       .  S
C100        C101   1.413       .  A
C100        C295   1.490       .  S
C101        C102   1.401       .  A
C101        C267   1.476       .  S
C102        H103   1.085       .  S
O105        C121   1.275       .  A
O105       Zn111   2.017       .  S
C106        C519   1.484       .  S
C106        O122   1.276       .  A
C106        O119   1.276       .  A
O107        C120   1.273       .  A
O107       Cd114   2.086       .  S
O108        C126   1.276       .  A
O108       Cd117   2.065       .  S
O109        C123   1.275       .  A
O109       Cd113   2.090       .  S
O110        C121   1.275       .  A
O110       Cd113   2.061   1_565  S
Zn111       O122   2.016       .  S
Zn111       O124   2.058       .  S
Zn111       O116   1.938       .  S
O112        C123   1.279       .  A
O112       Cd117   2.106       .  S
Cd113       O115   2.056       .  S
Cd113       O116   2.007   1_545  S
Cd114       O118   2.046   1_565  S
Cd114       O127   2.069   1_565  S
Cd114       O116   2.008       .  S
O115        C125   1.273       .  A
O116       Cd117   2.002   1_565  S
Cd117       O119   2.082   1_545  S
O118        C125   1.271       .  A
C120        C698   1.488       .  S
C120        O124   1.277       .  A
C121        C278   1.487       .  S
C123        C250   1.501       .  S
C125        C379   1.457       .  S
C126        C351   1.475       .  S
C126        O127   1.275       .  A
O128        C144   1.274       .  A
O128       Zn134   1.991       .  S
C129        C264   1.478       .  S
C129        O145   1.273       .  A
C129        O142   1.274       .  A
O130        C143   1.279       .  A
O130       Cd137   2.106       .  S
O131        C149   1.272       .  A
O131       Cd140   2.041       .  S
O132        C146   1.276       .  A
O132       Cd136   2.090       .  S
O133        C144   1.271       .  A
O133       Cd136   2.050       .  S
Zn134       O145   2.001       .  S
Zn134       O147   2.057       .  S
Zn134       O139   1.937       .  S
O135        C146   1.274       .  A
O135       Cd140   2.085       .  S
Cd136       O138   2.057       .  S
Cd136       O139   2.008       .  S
Cd137       O141   2.082       .  S
Cd137       O150   2.086       .  S
Cd137       O139   2.006       .  S
O138        C148   1.273       .  A
O139       Cd140   2.002       .  S
Cd140       O142   2.068       .  S
O141        C148   1.278       .  A
C143        C673   1.504       .  S
C143        O147   1.277       .  A
C144        C572   1.470       .  S
C146        C236   1.491       .  S
C148        C334   1.470       .  S
C149        C488   1.465       .  S
C149        O150   1.278       .  A
O151        C167   1.275       .  A
O151       Zn157   2.004       .  S
C152        C306   1.483       .  S
C152        O168   1.276       .  A
C152        O165   1.273       .  A
O153        C166   1.275       .  A
O153       Cd160   2.083       .  S
O154        C172   1.276       .  A
O154       Cd873   2.062   1_554  S
O155        C169   1.276       .  A
O155       Cd159   2.094       .  S
O156        C167   1.272       .  A
O156       Cd159   2.053   1_565  S
Zn157       O168   2.011       .  S
Zn157       O880   2.053       .  S
Zn157       O162   1.940       .  S
O158        C169   1.279       .  A
O158       Cd163   2.105       .  S
Cd159       O871   2.067       .  S
Cd159       O162   2.004   1_545  S
Cd160       O164   2.073   1_565  S
Cd160       O173   2.076   1_565  S
Cd160       O872   2.009   1_554  S
O161        C171   1.276       .  A
O161       Cd869   2.067   1_554  S
O162       Cd163   2.009   1_565  S
O162       Cd870   2.009       .  S
Cd163       O165   2.074   1_545  S
Cd163       O864   2.062       .  S
O164        C171   1.274       .  A
C166        C687   1.492       .  S
C166        O170   1.276       .  A
C167        C544   1.473       .  S
C169        C225   1.500       .  S
O170       Zn867   2.053   1_554  S
C171        C362   1.474       .  S
C172        C393   1.472       .  S
C172        O173   1.278       .  A
O174        C190   1.275       .  A
O174       Zn180   2.004       .  S
C175        C589   1.479       .  S
C175        O191   1.274       .  A
C175        O188   1.276       .  A
O176        C189   1.275       .  A
O176       Cd183   2.100       .  S
O177        C195   1.274       .  A
O177       Cd896   2.068   1_554  S
O178        C192   1.279       .  A
O178       Cd182   2.100       .  S
O179        C190   1.274       .  A
O179       Cd182   2.077       .  S
Zn180       O191   1.988       .  S
Zn180       O903   2.054       .  S
Zn180       O185   1.929       .  S
O181        C192   1.278       .  A
O181       Cd186   2.108       .  S
Cd182       O894   2.060       .  S
Cd182       O185   2.012       .  S
Cd183       O187   2.051       .  S
Cd183       O196   2.066       .  S
Cd183       O895   2.007       .  S
O184        C194   1.275       .  A
O184       Cd892   2.060   1_554  S
O185       Cd186   2.017       .  S
O185       Cd893   2.007       .  S
Cd186       O188   2.079       .  S
Cd186       O887   2.068       .  S
O187        C194   1.274       .  A
C189        C656   1.492       .  S
C189        O193   1.275       .  A
C190        C292   1.488       .  S
C192        C208   1.501       .  S
O193       Zn890   2.054   1_554  S
C194        C505   1.463       .  S
C195        C320   1.462       .  S
C195        O196   1.274       .  A
C197        H198   1.106       .  S
C197        C203   1.543       .  S
C197        C202   1.548       .  S
C197        C201   1.550       .  S
C199        H200   1.108       .  S
C199        C205   1.551       .  S
C199        C204   1.545       .  S
C199        C206   1.548       .  S
C201        C204   1.381       .  D
C201        C239   1.498       .  S
C202        C205   1.387       .  D
C202        C253   1.511       .  S
C203        C206   1.377       .  D
C203        C421   1.506       .  S
C204        C211   1.507       .  S
C205        C222   1.509       .  S
C206        C449   1.495       .  S
C207        C208   1.405       .  A
C207        C212   1.407       .  A
C207        H214   1.084       .  S
C208        C209   1.416       .  A
C209        C210   1.411       .  A
C209        N216   1.428       .  S
C210        C211   1.406       .  A
C210        H215   1.084       .  S
C211        C212   1.414       .  A
C212        N213   1.426       .  S
N213        O217   1.262       .  A
N213        O218   1.260       .  A
N216        O220   1.262       .  A
N216        O219   1.262       .  A
C221        C222   1.408       .  A
C221        C226   1.408       .  A
C221        H228   1.084       .  S
C222        C223   1.418       .  A
C223        C224   1.408       .  A
C223        N230   1.430       .  S
C224        C225   1.404       .  A
C224        H229   1.084       .  S
C225        C226   1.415       .  A
C226        N227   1.429       .  S
N227        O231   1.262       .  A
N227        O232   1.262       .  A
N230        O234   1.262       .  A
N230        O233   1.261       .  A
C235        C236   1.404       .  A
C235        C240   1.408       .  A
C235        H242   1.084       .  S
C236        C237   1.412       .  A
C237        C238   1.403       .  A
C237        N244   1.429       .  S
C238        C239   1.404       .  A
C238        H243   1.083       .  S
C239        C240   1.419       .  A
C240        N241   1.434       .  S
N241        O245   1.263       .  A
N241        O246   1.262       .  A
N244        O248   1.262       .  A
N244        O247   1.262       .  A
C249        C250   1.404       .  A
C249        C254   1.407       .  A
C249        H256   1.084       .  S
C250        C251   1.416       .  A
C251        C252   1.409       .  A
C251        N258   1.429       .  S
C252        C253   1.408       .  A
C252        H257   1.084       .  S
C253        C254   1.419       .  A
C254        N255   1.430       .  S
N255        O259   1.262       .  A
N255        O260   1.261       .  A
N258        O262   1.262       .  A
N258        O261   1.262       .  A
C263        C264   1.407       .  A
C263        C268   1.402       .  A
C263        H270   1.084       .  S
C264        C265   1.414       .  A
C265        C266   1.393       .  A
C265        N272   1.430       .  S
C266        C267   1.399       .  A
C266        H271   1.084       .  S
C267        C268   1.407       .  A
C268        N269   1.429       .  S
N269        O273   1.262       .  A
N269        O274   1.262       .  A
N272        O276   1.262       .  A
N272        O275   1.262       .  A
C277        C278   1.410       .  A
C277        C282   1.403       .  A
C277        H284   1.083       .  S
C278        C279   1.415       .  A
C279        C280   1.395       .  A
C279        N286   1.430       .  S
C280        C281   1.401       .  A
C280        H285   1.085       .  S
C281        C282   1.407       .  A
C282        N283   1.431       .  S
N283        O287   1.262       .  A
N283        O288   1.262       .  A
N286        O290   1.262       .  A
N286        O289   1.262       .  A
C291        C292   1.402       .  A
C291        C296   1.391       .  A
C291        H298   1.084       .  S
C292        C293   1.416       .  A
C293        C294   1.406       .  A
C293        N300   1.428       .  S
C294        C295   1.405       .  A
C294        H299   1.083       .  S
C295        C296   1.411       .  A
C296        N297   1.427       .  S
N297        O301   1.262       .  A
N297        O302   1.262       .  A
N300        O304   1.262       .  A
N300        O303   1.262       .  A
C305        C306   1.401       .  A
C305        C310   1.395       .  A
C305        H312   1.084       .  S
C306        C307   1.414       .  A
C307        C308   1.405       .  A
C307        N314   1.429       .  S
C308        C309   1.403       .  A
C308        H313   1.084       .  S
C309        C310   1.412       .  A
C310        N311   1.429       .  S
N311        O315   1.259       .  A
N311        O316   1.262       .  A
N314        O318   1.262   1_565  A
N314        O317   1.262       .  A
C319        C320   1.406       .  A
C319        C324   1.407       .  A
C319        H326   1.083       .  S
C320        C321   1.402       .  A
C321        C322   1.387       .  A
C321        N328   1.428       .  S
C322        C323   1.398       .  A
C322        H327   1.081       .  S
C323        C324   1.406       .  A
C324        N325   1.427       .  S
N325        O329   1.261       .  A
N325        O330   1.262       .  A
N328        O332   1.261       .  A
N328        O331   1.261       .  A
C333        C334   1.405       .  A
C333        C338   1.404       .  A
C333        H340   1.084       .  S
C334        C335   1.405       .  A
C335        C336   1.393       .  A
C335        N342   1.428       .  S
C336        C337   1.401       .  A
C336        H341   1.081       .  S
C337        C338   1.409       .  A
C338        N339   1.430       .  S
N339        O343   1.262       .  A
N339        O344   1.262       .  A
N342        O346   1.261       .  A
N342        O345   1.262       .  A
C347        C348   1.404       .  A
C347        C352   1.399       .  A
C347        H354   1.083       .  S
C348        C349   1.409       .  A
C349        C350   1.396       .  A
C349        N356   1.429       .  S
C350        C351   1.403       .  A
C350        H355   1.084       .  S
C351        C352   1.412       .  A
C352        N353   1.429       .  S
N353        O357   1.262       .  A
N353        O358   1.262       .  A
N356        O360   1.262       .  A
N356        O359   1.262       .  A
C361        C362   1.395       .  A
C361        C366   1.392       .  A
C361        H368   1.085       .  S
C362        C363   1.412       .  A
C363        C364   1.405       .  A
C363        N370   1.428       .  S
C364        C365   1.407       .  A
C364        H369   1.083       .  S
C365        C366   1.418       .  A
C366        N367   1.429       .  S
N367        O371   1.262       .  A
N367        O372   1.262       .  A
N370        O374   1.262   1_545  A
N370        O373   1.262   1_545  A
C375        C376   1.406       .  A
C375        C380   1.388       .  A
C375        H382   1.084       .  S
C376        C377   1.411       .  A
C377        C378   1.401       .  A
C377        N384   1.432       .  S
C378        C379   1.402       .  A
C378        H383   1.084       .  S
C379        C380   1.402       .  A
C380        N381   1.430       .  S
N381        O385   1.262       .  A
N381        O386   1.262       .  A
N384        O388   1.262       .  A
N384        O387   1.262       .  A
C389        C390   1.403       .  A
C389        C394   1.399       .  A
C389        H396   1.084       .  S
C390        C391   1.416       .  A
C391        C392   1.399       .  A
C391        N398   1.432       .  S
C392        C393   1.399       .  A
C392        H397   1.084       .  S
C393        C394   1.409       .  A
C394        N395   1.429       .  S
N395        O399   1.262       .  A
N395        O400   1.262   1_545  A
N398        O402   1.262       .  A
N398        O401   1.261       .  A
C403        C404   1.397       .  A
C403        C408   1.393       .  A
C403        H410   1.085       .  S
C404        C405   1.406       .  A
C405        C406   1.399       .  A
C405        N412   1.429       .  S
C406        C407   1.404       .  A
C406        H411   1.084       .  S
C407        C408   1.413       .  A
C408        N409   1.431       .  S
N409        O413   1.261       .  A
N409        O414   1.263       .  A
N412        O416   1.262   1_655  A
N412        O415   1.262       .  A
C417        C418   1.407       .  A
C417        C422   1.408       .  A
C417        H424   1.084       .  S
C418        C419   1.417       .  A
C419        C420   1.409       .  A
C419        N426   1.428       .  S
C420        C421   1.404       .  A
C420        H425   1.084       .  S
C421        C422   1.413       .  A
C422        N423   1.427       .  S
N423        O427   1.262       .  A
N423        O428   1.261       .  A
N426        O430   1.262       .  A
N426        O429   1.262       .  A
C431        C432   1.409       .  A
C431        C436   1.402       .  A
C431        H438   1.083       .  S
C432        C433   1.418       .  A
C433        C434   1.392       .  A
C433        N440   1.431       .  S
C434        C435   1.397       .  A
C434        H439   1.085       .  S
C435        C436   1.405       .  A
C436        N437   1.428       .  S
N437        O441   1.262   1_655  A
N437        O442   1.262   1_655  A
N440        O444   1.262       .  A
N440        O443   1.261       .  A
C445        C446   1.408       .  A
C445        C450   1.411       .  A
C445        H452   1.083       .  S
C446        C447   1.412       .  A
C447        C448   1.404       .  A
C447        N454   1.428       .  S
C448        C449   1.404       .  A
C448        H453   1.082       .  S
C449        C450   1.420       .  A
C450        N451   1.443       .  S
N451        O455   1.263       .  A
N451        O456   1.262       .  A
N454        O458   1.262       .  A
N454        O457   1.262       .  A
C459        C460   1.400       .  A
C459        C464   1.392       .  A
C459        H466   1.081       .  S
C460        C461   1.407       .  A
C461        C462   1.404       .  A
C461        N468   1.429       .  S
C462        C463   1.405       .  A
C462        H467   1.084       .  S
C463        C464   1.406       .  A
C464        N465   1.430       .  S
N465        O469   1.262       .  A
N465        O470   1.262       .  A
N468        O472   1.262       .  A
N468        O471   1.261       .  A
C473        C474   1.402       .  A
C473        C478   1.400       .  A
C473        H480   1.083       .  S
C474        C475   1.413       .  A
C475        C476   1.393       .  A
C475        N482   1.432       .  S
C476        C477   1.397       .  A
C476        H481   1.084       .  S
C477        C478   1.406       .  A
C478        N479   1.428       .  S
N479        O483   1.262   1_655  A
N479        O484   1.262   1_655  A
N482        O486   1.262       .  A
N482        O485   1.262       .  A
C487        C488   1.398       .  A
C487        C492   1.392       .  A
C487        H494   1.085       .  S
C488        C489   1.406       .  A
C489        C490   1.403       .  A
C489        N496   1.428       .  S
C490        C491   1.407       .  A
C490        H495   1.084       .  S
C491        C492   1.415       .  A
C492        N493   1.431       .  S
N493        O497   1.262       .  A
N493        O498   1.262       .  A
N496        O500   1.262       .  A
N496        O499   1.262       .  A
C501        C502   1.401       .  A
C501        C506   1.391       .  A
C501        H508   1.083       .  S
C502        C503   1.408       .  A
C503        C504   1.398       .  A
C503        N510   1.429       .  S
C504        C505   1.402       .  A
C504        H509   1.084       .  S
C505        C506   1.406       .  A
C506        N507   1.427       .  S
N507        O511   1.261       .  A
N507        O512   1.261       .  A
N510        O514   1.262       .  A
N510        O513   1.262       .  A
C515        C516   1.402       .  A
C515        C520   1.403       .  A
C515        H522   1.084       .  S
C516        C517   1.409       .  A
C517        C518   1.398       .  A
C517        N524   1.430       .  S
C518        C519   1.405       .  A
C518        H523   1.084       .  S
C519        C520   1.414       .  A
C520        N521   1.429       .  S
N521        O525   1.262       .  A
N521        O526   1.262   1_565  A
N524        O528   1.262       .  A
N524        O527   1.262       .  A
C529        C530   1.401       .  A
C529        C534   1.394       .  A
C529        H536   1.084       .  S
C530        C531   1.409       .  A
C531        C532   1.405       .  A
C531        N538   1.430       .  S
C532        C533   1.409       .  A
C532        H537   1.083       .  S
C533        C534   1.417       .  A
C534        N535   1.430       .  S
N535        O539   1.262       .  A
N535        O540   1.262       .  A
N538        O542   1.262       .  A
N538        O541   1.262       .  A
C543        C544   1.399       .  A
C543        C548   1.392       .  A
C543        H550   1.084       .  S
C544        C545   1.412       .  A
C545        C546   1.402       .  A
C545        N552   1.430       .  S
C546        C547   1.405       .  A
C546        H551   1.083       .  S
C547        C548   1.417       .  A
C548        N549   1.431       .  S
N549        O553   1.261       .  A
N549        O554   1.262       .  A
N552        O556   1.262   1_565  A
N552        O555   1.262   1_565  A
C557        C558   1.402       .  A
C557        C562   1.392       .  A
C557        H564   1.083       .  S
C558        C559   1.411       .  A
C559        C560   1.403       .  A
C559        N566   1.430       .  S
C560        C561   1.405       .  A
C560        H565   1.084       .  S
C561        C562   1.411       .  A
C562        N563   1.430       .  S
N563        O567   1.262       .  A
N563        O568   1.262       .  A
N566        O570   1.262       .  A
N566        O569   1.261       .  A
C571        C572   1.401       .  A
C571        C576   1.390       .  A
C571        H578   1.084       .  S
C572        C573   1.412       .  A
C573        C574   1.398       .  A
C573        N580   1.428       .  S
C574        C575   1.400       .  A
C574        H579   1.084       .  S
C575        C576   1.408       .  A
C576        N577   1.429       .  S
N577        O581   1.260       .  A
N577        O582   1.262       .  A
N580        O584   1.262       .  A
N580        O583   1.262       .  A
C585        C586   1.408       .  A
C585        C590   1.402       .  A
C585        H592   1.083       .  S
C586        C587   1.417       .  A
C587        C588   1.392       .  A
C587        N594   1.431       .  S
C588        C589   1.402       .  A
C588        H593   1.084       .  S
C589        C590   1.410       .  A
C590        N591   1.428       .  S
N591        O595   1.262       .  A
N591        O596   1.262       .  A
N594        O598   1.261       .  A
N594        O597   1.262       .  A
C599        C600   1.409       .  A
C599        C604   1.402       .  A
C599        H606   1.082       .  S
C600        C601   1.418       .  A
C601        C602   1.391       .  A
C601        N608   1.429       .  S
C602        C603   1.399       .  A
C602        H607   1.084       .  S
C603        C604   1.408       .  A
C604        N605   1.428       .  S
N605        O609   1.261   1_455  A
N605        O610   1.262   1_455  A
N608        O612   1.261       .  A
N608        O611   1.263       .  A
C613        C614   1.403       .  A
C613        C618   1.395       .  A
C613        H620   1.084       .  S
C614        C615   1.413       .  A
C615        C616   1.396       .  A
C615        N622   1.428       .  S
C616        C617   1.398       .  A
C616        H621   1.084       .  S
C617        C618   1.409       .  A
C618        N619   1.432       .  S
N619        O623   1.262       .  A
N619        O624   1.260       .  A
N622        O626   1.262       .  A
N622        O625   1.262   1_455  A
C627        C628   1.418       .  A
C627        C632   1.409       .  A
C627        H634   1.079       .  S
C628        C629   1.434       .  A
C629        C630   1.407       .  A
C629        N636   1.427       .  S
C630        C631   1.398       .  A
C630        H635   1.084       .  S
C631        C632   1.410       .  A
C632        N633   1.431       .  S
N633        O637   1.262       .  A
N633        O638   1.262       .  A
N636        O640   1.263       .  A
N636        O639   1.261       .  A
C641        C642   1.412       .  A
C641        C646   1.412       .  A
C641        H648   1.082       .  S
C642        C643   1.418       .  A
C643        C644   1.398       .  A
C643        N650   1.419       .  S
C644        C645   1.393       .  A
C644        H649   1.085       .  S
C645        C646   1.411       .  A
C646        N647   1.428       .  S
N647        O651   1.262       .  A
N647        O652   1.262       .  A
N650        O654   1.262       .  A
N650        O653   1.263       .  A
C655        C656   1.402       .  A
C655        C660   1.415       .  A
C655        H662   1.083       .  S
C656        C657   1.409       .  A
C657        C658   1.407       .  A
C657        N664   1.428       .  S
C658        C659   1.407       .  A
C658        H663   1.082       .  S
C659        C660   1.425       .  A
C660        N661   1.445       .  S
N661        O665   1.263       .  A
N661        O666   1.261       .  A
N664        O668   1.262       .  A
N664        O667   1.262       .  A
C669        C670   1.412       .  A
C669        C674   1.405       .  A
C669        H676   1.077       .  S
C670        C671   1.426       .  A
C671        C672   1.414       .  A
C671        N678   1.428       .  S
C672        C673   1.406       .  A
C672        H677   1.084       .  S
C673        C674   1.410       .  A
C674        N675   1.429       .  S
N675        O679   1.262       .  A
N675        O680   1.262       .  A
N678        O682   1.260       .  A
N678        O681   1.263       .  A
C683        C684   1.407       .  A
C683        C688   1.403       .  A
C683        H690   1.081       .  S
C684        C685   1.417       .  A
C685        C686   1.410       .  A
C685        N692   1.428       .  S
C686        C687   1.405       .  A
C686        H691   1.084       .  S
C687        C688   1.411       .  A
C688        N689   1.430       .  S
N689        O693   1.262       .  A
N689        O694   1.262       .  A
N692        O696   1.261       .  A
N692        O695   1.262       .  A
C697        C698   1.407       .  A
C697        C702   1.415       .  A
C697        H704   1.082       .  S
C698        C699   1.404       .  A
C699        C700   1.401       .  A
C699        N706   1.429       .  S
C700        C701   1.399       .  A
C700        H705   1.056       .  S
C701        C702   1.418       .  A
C702        N703   1.435       .  S
N703        O707   1.262       .  A
N703        O708   1.262       .  A
N706        O710   1.262       .  A
N706        O709   1.262       .  A
C711        H712   1.088       .  S
C711        C717   1.559       .  S
C711        C716   1.540       .  S
C711        C715   1.554       .  S
C713        H714   1.102       .  S
C713        C719   1.557       .  S
C713        C718   1.554       .  S
C713        C720   1.558       .  S
C715        C718   1.387       .  D
C715       C1369   1.506       .  S
C716        C719   1.374       .  D
C716       C1394   1.509       .  S
C717        C720   1.398       .  D
C717       C1338   1.545       .  S
C718       C1380   1.533       .  S
C719       C1411   1.507       .  S
C720       C1352   1.516       .  S
C721        C722   1.415       .  A
C721        C726   1.400       .  A
C721       C1327   1.469       .  S
C722        C723   1.399       .  A
C722       C1310   1.495       .  S
C723        C724   1.400       .  A
C723        H728   1.081       .  S
C724        C725   1.414       .  A
C724       C1285   1.470       .  S
C725        C726   1.398       .  A
C725       C1296   1.493       .  S
C726        H727   1.081       .  S
C729        C730   1.417       .  A
C729        C734   1.400       .  A
C729       C1268   1.481       .  S
C730        C731   1.403       .  A
C730       C1240   1.487       .  S
C731        C732   1.400       .  A
C731        H736   1.085       .  S
C732        C733   1.416       .  A
C732       C1226   1.482       .  S
C733        C734   1.403       .  A
C733       C1257   1.488       .  S
C734        H735   1.083       .  S
C737        C738   1.415       .  A
C737        C742   1.398       .  A
C737       C1212   1.475       .  S
C738        C739   1.404       .  A
C738       C1201   1.486       .  S
C739        C740   1.400       .  A
C739        H744   1.084       .  S
C740        C741   1.409       .  A
C740       C1170   1.476       .  S
C741        C742   1.396       .  A
C741       C1184   1.475       .  S
C742        H743   1.085       .  S
O745        C761   1.274       .  A
O745       Zn751   2.006       .  S
C746       C1271   1.475       .  S
C746        O762   1.273       .  A
C746        O759   1.275       .  A
O747        C760   1.275       .  A
O747       Cd754   2.091       .  S
O748        C766   1.273       .  A
O749        C763   1.274       .  A
O749       Cd753   2.076       .  S
O750        C761   1.270       .  A
O750       Cd753   2.044   1_455  S
Zn751       O762   1.997       .  S
Zn751       O756   1.934       .  S
O752        C763   1.276       .  A
O752       Cd757   2.101       .  S
Cd753       O756   1.995   1_655  S
Cd754       O758   2.087   1_455  S
Cd754       O767   2.072   1_455  S
O755        C765   1.272       .  A
O756       Cd757   2.007   1_455  S
Cd757       O759   2.071   1_655  S
O758        C765   1.277       .  A
C760       C1341   1.498       .  S
C760        O764   1.278       .  A
C761       C1324   1.472       .  S
C763       C1156   1.497       .  S
C765       C1145   1.465       .  S
C766       C1187   1.459       .  S
C766        O767   1.276       .  A
O768        C784   1.272       .  A
O768       Zn774   1.999       .  S
C769       C1313   1.475       .  S
C769        O785   1.272       .  A
C769        O782   1.275       .  A
O770        C783   1.273       .  A
O770       Cd777   2.091       .  S
O771        C789   1.276       .  A
O771       Cd780   2.077       .  S
O772        C786   1.280       .  A
O772       Cd776   2.106       .  S
O773        C784   1.277       .  A
O773       Cd776   2.082   1_455  S
Zn774       O785   1.980       .  S
Zn774       O787   2.028       .  S
Zn774       O779   1.924   1_455  S
O775        C786   1.278       .  A
O775       Cd780   2.101       .  S
Cd776       O778   2.077       .  S
Cd776       O779   2.010       .  S
Cd777       O781   2.060   1_455  S
Cd777       O790   2.034   1_455  S
Cd777       O779   2.002   1_455  S
O778        C788   1.276       .  A
O779       Cd780   2.015       .  S
Cd780       O782   2.077   1_655  S
O781        C788   1.275       .  A
C783       C1355   1.485       .  S
C783        O787   1.274       .  A
C784       C1243   1.490       .  S
C786       C1128   1.504       .  S
C788       C1173   1.466       .  S
C789       C1114   1.463       .  S
C789        O790   1.270       .  A
C791        C792   1.416       .  A
C791        C796   1.404       .  A
C791       C1142   1.490       .  S
C792        C793   1.395       .  A
C792       C1117   1.479       .  S
C793        C794   1.398       .  A
C793        H798   1.085       .  S
C794        C795   1.416       .  A
C794       C1086   1.480       .  S
C795        C796   1.402       .  A
C795       C1100   1.484       .  S
C796        H797   1.082       .  S
C799        C800   1.420       .  A
C799        C804   1.405       .  A
C799       C1058   1.483       .  S
C800        C801   1.403       .  A
C800       C1075   1.494       .  S
C801        C802   1.398       .  A
C801        H806   1.084       .  S
C802        C803   1.412       .  A
C802       C1033   1.475       .  S
C803        C804   1.398       .  A
C803       C1047   1.480       .  S
C804        H805   1.084       .  S
C807        C808   1.415       .  A
C807        C812   1.402       .  A
C807        C991   1.481       .  S
C808        C809   1.403       .  A
C808       C1019   1.483       .  S
C809        C810   1.403       .  A
C809        H814   1.084       .  S
C810        C811   1.413       .  A
C810       C1005   1.490       .  S
C811        C812   1.401       .  A
C811        C977   1.476       .  S
C812        H813   1.085       .  S
O815        C831   1.275       .  A
O815       Zn821   2.017       .  S
C816       C1229   1.484       .  S
C816        O832   1.276       .  A
C816        O829   1.276       .  A
O817        C830   1.273       .  A
O817       Cd824   2.087       .  S
O818        C836   1.276       .  A
O818       Cd827   2.065       .  S
O819        C833   1.275       .  A
O819       Cd823   2.090       .  S
O820        C831   1.275       .  A
O820       Cd823   2.061   1_565  S
Zn821       O832   2.016       .  S
Zn821       O834   2.058       .  S
Zn821       O826   1.938       .  S
O822        C833   1.279       .  A
O822       Cd827   2.106       .  S
Cd823       O825   2.055       .  S
Cd823       O826   2.006   1_545  S
Cd824       O828   2.046   1_565  S
Cd824       O837   2.069   1_565  S
Cd824       O826   2.008       .  S
O825        C835   1.273       .  A
O826       Cd827   2.002   1_565  S
Cd827       O829   2.081   1_545  S
O828        C835   1.271       .  A
C830       C1408   1.488       .  S
C830        O834   1.277       .  A
C831        C988   1.487       .  S
C833        C960   1.501       .  S
C835       C1089   1.457       .  S
C836       C1061   1.475       .  S
C836        O837   1.275       .  A
O838        C854   1.274       .  A
O838       Zn844   1.991       .  S
C839        C974   1.478       .  S
C839        O855   1.273       .  A
C839        O852   1.274       .  A
O840        C853   1.279       .  A
O840       Cd847   2.107       .  S
O841        C859   1.272       .  A
O841       Cd850   2.041       .  S
O842        C856   1.276       .  A
O842       Cd846   2.090       .  S
O843        C854   1.271       .  A
O843       Cd846   2.050       .  S
Zn844       O855   2.001       .  S
Zn844       O857   2.057       .  S
Zn844       O849   1.937       .  S
O845        C856   1.274       .  A
O845       Cd850   2.085       .  S
Cd846       O848   2.056       .  S
Cd846       O849   2.008       .  S
Cd847       O851   2.082       .  S
Cd847       O860   2.087       .  S
Cd847       O849   2.006       .  S
O848        C858   1.273       .  A
O849       Cd850   2.002       .  S
Cd850       O852   2.068       .  S
O851        C858   1.278       .  A
C853       C1383   1.504       .  S
C853        O857   1.277       .  A
C854       C1282   1.470       .  S
C856        C946   1.491       .  S
C858       C1044   1.470       .  S
C859       C1198   1.465       .  S
C859        O860   1.278       .  A
O861        C877   1.275       .  A
O861       Zn867   2.004       .  S
C862       C1016   1.483       .  S
C862        O878   1.276       .  A
C862        O875   1.273       .  A
O863        C876   1.275       .  A
O863       Cd870   2.083       .  S
O864        C882   1.276       .  A
O865        C879   1.276       .  A
O865       Cd869   2.093       .  S
O866        C877   1.272       .  A
O866       Cd869   2.053   1_565  S
Zn867       O878   2.012       .  S
Zn867       O872   1.940       .  S
O868        C879   1.279       .  A
O868       Cd873   2.104       .  S
Cd869       O872   2.004   1_545  S
Cd870       O874   2.072   1_565  S
Cd870       O883   2.076   1_565  S
O871        C881   1.276       .  A
O872       Cd873   2.009   1_565  S
Cd873       O875   2.074   1_545  S
O874        C881   1.274       .  A
C876       C1397   1.492       .  S
C876        O880   1.276       .  A
C877       C1254   1.473       .  S
C879        C935   1.499       .  S
C881       C1072   1.473       .  S
C882       C1103   1.472       .  S
C882        O883   1.278       .  A
O884        C900   1.275       .  A
O884       Zn890   2.004       .  S
C885       C1299   1.479       .  S
C885        O901   1.274       .  A
C885        O898   1.276       .  A
O886        C899   1.275       .  A
O886       Cd893   2.100       .  S
O887        C905   1.274       .  A
O888        C902   1.279       .  A
O888       Cd892   2.100       .  S
O889        C900   1.274       .  A
O889       Cd892   2.077       .  S
Zn890       O901   1.988       .  S
Zn890       O895   1.929   1_556  S
O891        C902   1.278       .  A
O891       Cd896   2.108       .  S
Cd892       O895   2.012   1_556  S
Cd893       O897   2.051       .  S
Cd893       O906   2.066       .  S
O894        C904   1.275       .  A
O895       Cd896   2.017   1_554  S
Cd896       O898   2.079       .  S
O897        C904   1.274       .  A
C899       C1366   1.493       .  S
C899        O903   1.275       .  A
C900       C1002   1.488       .  S
C902        C918   1.501       .  S
C904       C1215   1.463       .  S
C905       C1030   1.463       .  S
C905        O906   1.274       .  A
C907        H908   1.106       .  S
C907        C913   1.543       .  S
C907        C912   1.548       .  S
C907        C911   1.550       .  S
C909        H910   1.108       .  S
C909        C915   1.551       .  S
C909        C914   1.545       .  S
C909        C916   1.548       .  S
C911        C914   1.381       .  D
C911        C949   1.498       .  S
C912        C915   1.386       .  D
C912        C963   1.510       .  S
C913        C916   1.377       .  D
C913       C1131   1.506       .  S
C914        C921   1.507       .  S
C915        C932   1.509       .  S
C916       C1159   1.495       .  S
C917        C918   1.405       .  A
C917        C922   1.407       .  A
C917        H924   1.084       .  S
C918        C919   1.416       .  A
C919        C920   1.411       .  A
C919        N926   1.428       .  S
C920        C921   1.406       .  A
C920        H925   1.084       .  S
C921        C922   1.414       .  A
C922        N923   1.426       .  S
N923        O927   1.262       .  A
N923        O928   1.261       .  A
N926        O930   1.262       .  A
N926        O929   1.262       .  A
C931        C932   1.408       .  A
C931        C936   1.408       .  A
C931        H938   1.084       .  S
C932        C933   1.418       .  A
C933        C934   1.408       .  A
C933        N940   1.430       .  S
C934        C935   1.404       .  A
C934        H939   1.084       .  S
C935        C936   1.415       .  A
C936        N937   1.429       .  S
N937        O941   1.262       .  A
N937        O942   1.262       .  A
N940        O944   1.262       .  A
N940        O943   1.261       .  A
C945        C946   1.404       .  A
C945        C950   1.408       .  A
C945        H952   1.084       .  S
C946        C947   1.412       .  A
C947        C948   1.403       .  A
C947        N954   1.429       .  S
C948        C949   1.404       .  A
C948        H953   1.083       .  S
C949        C950   1.419       .  A
C950        N951   1.434       .  S
N951        O955   1.263       .  A
N951        O956   1.262       .  A
N954        O958   1.262       .  A
N954        O957   1.262       .  A
C959        C960   1.404       .  A
C959        C964   1.407       .  A
C959        H966   1.084       .  S
C960        C961   1.416       .  A
C961        C962   1.409       .  A
C961        N968   1.429       .  S
C962        C963   1.408       .  A
C962        H967   1.084       .  S
C963        C964   1.419       .  A
C964        N965   1.430       .  S
N965        O969   1.262       .  A
N965        O970   1.261       .  A
N968        O972   1.262       .  A
N968        O971   1.262       .  A
C973        C974   1.407       .  A
C973        C978   1.402       .  A
C973        H980   1.084       .  S
C974        C975   1.414       .  A
C975        C976   1.393       .  A
C975        N982   1.430       .  S
C976        C977   1.399       .  A
C976        H981   1.084       .  S
C977        C978   1.407       .  A
C978        N979   1.429       .  S
N979        O983   1.262       .  A
N979        O984   1.262       .  A
N982        O986   1.262       .  A
N982        O985   1.262       .  A
C987        C988   1.410       .  A
C987        C992   1.403       .  A
C987        H994   1.083       .  S
C988        C989   1.415       .  A
C989        C990   1.395       .  A
C989        N996   1.430       .  S
C990        C991   1.401       .  A
C990        H995   1.085       .  S
C991        C992   1.407       .  A
C992        N993   1.431       .  S
N993        O997   1.262       .  A
N993        O998   1.262       .  A
N996       O1000   1.262       .  A
N996        O999   1.262       .  A
C1001      C1002   1.402       .  A
C1001      C1006   1.391       .  A
C1001      H1008   1.084       .  S
C1002      C1003   1.416       .  A
C1003      C1004   1.406       .  A
C1003      N1010   1.428       .  S
C1004      C1005   1.405       .  A
C1004      H1009   1.083       .  S
C1005      C1006   1.411       .  A
C1006      N1007   1.427       .  S
N1007      O1011   1.262       .  A
N1007      O1012   1.262       .  A
N1010      O1014   1.262       .  A
N1010      O1013   1.262       .  A
C1015      C1016   1.401       .  A
C1015      C1020   1.395       .  A
C1015      H1022   1.084       .  S
C1016      C1017   1.414       .  A
C1017      C1018   1.405       .  A
C1017      N1024   1.429       .  S
C1018      C1019   1.403       .  A
C1018      H1023   1.084       .  S
C1019      C1020   1.412       .  A
C1020      N1021   1.429       .  S
N1021      O1025   1.259       .  A
N1021      O1026   1.262       .  A
N1024      O1028   1.262   1_565  A
N1024      O1027   1.262       .  A
C1029      C1030   1.406       .  A
C1029      C1034   1.407       .  A
C1029      H1036   1.083       .  S
C1030      C1031   1.402       .  A
C1031      C1032   1.387       .  A
C1031      N1038   1.429       .  S
C1032      C1033   1.398       .  A
C1032      H1037   1.081       .  S
C1033      C1034   1.406       .  A
C1034      N1035   1.427       .  S
N1035      O1039   1.261       .  A
N1035      O1040   1.262       .  A
N1038      O1042   1.261       .  A
N1038      O1041   1.261       .  A
C1043      C1044   1.405       .  A
C1043      C1048   1.404       .  A
C1043      H1050   1.084       .  S
C1044      C1045   1.405       .  A
C1045      C1046   1.393       .  A
C1045      N1052   1.428       .  S
C1046      C1047   1.401       .  A
C1046      H1051   1.081       .  S
C1047      C1048   1.409       .  A
C1048      N1049   1.430       .  S
N1049      O1053   1.262       .  A
N1049      O1054   1.262       .  A
N1052      O1056   1.261       .  A
N1052      O1055   1.262       .  A
C1057      C1058   1.404       .  A
C1057      C1062   1.399       .  A
C1057      H1064   1.083       .  S
C1058      C1059   1.409       .  A
C1059      C1060   1.397       .  A
C1059      N1066   1.429       .  S
C1060      C1061   1.403       .  A
C1060      H1065   1.084       .  S
C1061      C1062   1.412       .  A
C1062      N1063   1.429       .  S
N1063      O1067   1.262       .  A
N1063      O1068   1.262       .  A
N1066      O1070   1.262       .  A
N1066      O1069   1.262       .  A
C1071      C1072   1.395       .  A
C1071      C1076   1.392       .  A
C1071      H1078   1.085       .  S
C1072      C1073   1.411       .  A
C1073      C1074   1.405       .  A
C1073      N1080   1.428       .  S
C1074      C1075   1.407       .  A
C1074      H1079   1.083       .  S
C1075      C1076   1.418       .  A
C1076      N1077   1.429       .  S
N1077      O1081   1.262       .  A
N1077      O1082   1.262       .  A
N1080      O1084   1.262   1_545  A
N1080      O1083   1.262   1_545  A
C1085      C1086   1.406       .  A
C1085      C1090   1.388       .  A
C1085      H1092   1.084       .  S
C1086      C1087   1.411       .  A
C1087      C1088   1.401       .  A
C1087      N1094   1.432       .  S
C1088      C1089   1.401       .  A
C1088      H1093   1.084       .  S
C1089      C1090   1.402       .  A
C1090      N1091   1.430       .  S
N1091      O1095   1.262       .  A
N1091      O1096   1.262       .  A
N1094      O1098   1.262       .  A
N1094      O1097   1.262       .  A
C1099      C1100   1.403       .  A
C1099      C1104   1.399       .  A
C1099      H1106   1.084       .  S
C1100      C1101   1.416       .  A
C1101      C1102   1.399       .  A
C1101      N1108   1.432       .  S
C1102      C1103   1.399       .  A
C1102      H1107   1.084       .  S
C1103      C1104   1.409       .  A
C1104      N1105   1.429       .  S
N1105      O1109   1.262       .  A
N1105      O1110   1.262   1_545  A
N1108      O1112   1.262       .  A
N1108      O1111   1.261       .  A
C1113      C1114   1.397       .  A
C1113      C1118   1.393       .  A
C1113      H1120   1.085       .  S
C1114      C1115   1.406       .  A
C1115      C1116   1.399       .  A
C1115      N1122   1.429       .  S
C1116      C1117   1.405       .  A
C1116      H1121   1.084       .  S
C1117      C1118   1.414       .  A
C1118      N1119   1.431       .  S
N1119      O1123   1.261       .  A
N1119      O1124   1.263       .  A
N1122      O1126   1.262   1_655  A
N1122      O1125   1.262       .  A
C1127      C1128   1.407       .  A
C1127      C1132   1.408       .  A
C1127      H1134   1.084       .  S
C1128      C1129   1.417       .  A
C1129      C1130   1.409       .  A
C1129      N1136   1.428       .  S
C1130      C1131   1.404       .  A
C1130      H1135   1.084       .  S
C1131      C1132   1.413       .  A
C1132      N1133   1.427       .  S
N1133      O1137   1.262       .  A
N1133      O1138   1.261       .  A
N1136      O1140   1.262       .  A
N1136      O1139   1.262       .  A
C1141      C1142   1.409       .  A
C1141      C1146   1.402       .  A
C1141      H1148   1.083       .  S
C1142      C1143   1.418       .  A
C1143      C1144   1.392       .  A
C1143      N1150   1.431       .  S
C1144      C1145   1.397       .  A
C1144      H1149   1.085       .  S
C1145      C1146   1.405       .  A
C1146      N1147   1.428       .  S
N1147      O1151   1.262   1_655  A
N1147      O1152   1.262   1_655  A
N1150      O1154   1.262       .  A
N1150      O1153   1.261       .  A
C1155      C1156   1.408       .  A
C1155      C1160   1.411       .  A
C1155      H1162   1.083       .  S
C1156      C1157   1.412       .  A
C1157      C1158   1.404       .  A
C1157      N1164   1.428       .  S
C1158      C1159   1.403       .  A
C1158      H1163   1.082       .  S
C1159      C1160   1.420       .  A
C1160      N1161   1.443       .  S
N1161      O1165   1.263       .  A
N1161      O1166   1.262       .  A
N1164      O1168   1.262       .  A
N1164      O1167   1.262       .  A
C1169      C1170   1.400       .  A
C1169      C1174   1.392       .  A
C1169      H1176   1.081       .  S
C1170      C1171   1.407       .  A
C1171      C1172   1.404       .  A
C1171      N1178   1.429       .  S
C1172      C1173   1.405       .  A
C1172      H1177   1.084       .  S
C1173      C1174   1.406       .  A
C1174      N1175   1.430       .  S
N1175      O1179   1.262       .  A
N1175      O1180   1.262       .  A
N1178      O1182   1.262       .  A
N1178      O1181   1.261       .  A
C1183      C1184   1.402       .  A
C1183      C1188   1.400       .  A
C1183      H1190   1.083       .  S
C1184      C1185   1.413       .  A
C1185      C1186   1.393       .  A
C1185      N1192   1.432       .  S
C1186      C1187   1.397       .  A
C1186      H1191   1.084       .  S
C1187      C1188   1.406       .  A
C1188      N1189   1.428       .  S
N1189      O1193   1.262   1_655  A
N1189      O1194   1.262   1_655  A
N1192      O1196   1.262       .  A
N1192      O1195   1.262       .  A
C1197      C1198   1.398       .  A
C1197      C1202   1.392       .  A
C1197      H1204   1.085       .  S
C1198      C1199   1.406       .  A
C1199      C1200   1.403       .  A
C1199      N1206   1.428       .  S
C1200      C1201   1.407       .  A
C1200      H1205   1.084       .  S
C1201      C1202   1.415       .  A
C1202      N1203   1.431       .  S
N1203      O1207   1.262       .  A
N1203      O1208   1.262       .  A
N1206      O1210   1.262       .  A
N1206      O1209   1.262       .  A
C1211      C1212   1.401       .  A
C1211      C1216   1.391       .  A
C1211      H1218   1.083       .  S
C1212      C1213   1.408       .  A
C1213      C1214   1.398       .  A
C1213      N1220   1.429       .  S
C1214      C1215   1.402       .  A
C1214      H1219   1.084       .  S
C1215      C1216   1.406       .  A
C1216      N1217   1.427       .  S
N1217      O1221   1.261       .  A
N1217      O1222   1.261       .  A
N1220      O1224   1.262       .  A
N1220      O1223   1.262       .  A
C1225      C1226   1.402       .  A
C1225      C1230   1.403       .  A
C1225      H1232   1.084       .  S
C1226      C1227   1.409       .  A
C1227      C1228   1.398       .  A
C1227      N1234   1.430       .  S
C1228      C1229   1.405       .  A
C1228      H1233   1.084       .  S
C1229      C1230   1.414       .  A
C1230      N1231   1.429       .  S
N1231      O1235   1.262       .  A
N1231      O1236   1.262   1_565  A
N1234      O1238   1.262       .  A
N1234      O1237   1.262       .  A
C1239      C1240   1.401       .  A
C1239      C1244   1.394       .  A
C1239      H1246   1.084       .  S
C1240      C1241   1.409       .  A
C1241      C1242   1.405       .  A
C1241      N1248   1.429       .  S
C1242      C1243   1.409       .  A
C1242      H1247   1.083       .  S
C1243      C1244   1.417       .  A
C1244      N1245   1.430       .  S
N1245      O1249   1.262       .  A
N1245      O1250   1.262       .  A
N1248      O1252   1.262       .  A
N1248      O1251   1.262       .  A
C1253      C1254   1.399       .  A
C1253      C1258   1.392       .  A
C1253      H1260   1.084       .  S
C1254      C1255   1.412       .  A
C1255      C1256   1.402       .  A
C1255      N1262   1.430       .  S
C1256      C1257   1.405       .  A
C1256      H1261   1.083       .  S
C1257      C1258   1.418       .  A
C1258      N1259   1.431       .  S
N1259      O1263   1.261       .  A
N1259      O1264   1.262       .  A
N1262      O1266   1.262   1_565  A
N1262      O1265   1.262   1_565  A
C1267      C1268   1.401       .  A
C1267      C1272   1.392       .  A
C1267      H1274   1.083       .  S
C1268      C1269   1.411       .  A
C1269      C1270   1.403       .  A
C1269      N1276   1.430       .  S
C1270      C1271   1.405       .  A
C1270      H1275   1.084       .  S
C1271      C1272   1.411       .  A
C1272      N1273   1.430       .  S
N1273      O1277   1.262       .  A
N1273      O1278   1.262       .  A
N1276      O1280   1.262       .  A
N1276      O1279   1.261       .  A
C1281      C1282   1.401       .  A
C1281      C1286   1.390       .  A
C1281      H1288   1.084       .  S
C1282      C1283   1.412       .  A
C1283      C1284   1.398       .  A
C1283      N1290   1.428       .  S
C1284      C1285   1.400       .  A
C1284      H1289   1.084       .  S
C1285      C1286   1.408       .  A
C1286      N1287   1.429       .  S
N1287      O1291   1.260       .  A
N1287      O1292   1.262       .  A
N1290      O1294   1.262       .  A
N1290      O1293   1.262       .  A
C1295      C1296   1.408       .  A
C1295      C1300   1.402       .  A
C1295      H1302   1.083       .  S
C1296      C1297   1.417       .  A
C1297      C1298   1.392       .  A
C1297      N1304   1.431       .  S
C1298      C1299   1.402       .  A
C1298      H1303   1.084       .  S
C1299      C1300   1.410       .  A
C1300      N1301   1.428       .  S
N1301      O1305   1.262       .  A
N1301      O1306   1.262       .  A
N1304      O1308   1.261       .  A
N1304      O1307   1.262       .  A
C1309      C1310   1.409       .  A
C1309      C1314   1.402       .  A
C1309      H1316   1.082       .  S
C1310      C1311   1.418       .  A
C1311      C1312   1.391       .  A
C1311      N1318   1.429       .  S
C1312      C1313   1.399       .  A
C1312      H1317   1.084       .  S
C1313      C1314   1.408       .  A
C1314      N1315   1.428       .  S
N1315      O1319   1.261   1_455  A
N1315      O1320   1.262   1_455  A
N1318      O1322   1.261       .  A
N1318      O1321   1.263       .  A
C1323      C1324   1.403       .  A
C1323      C1328   1.395       .  A
C1323      H1330   1.084       .  S
C1324      C1325   1.413       .  A
C1325      C1326   1.396       .  A
C1325      N1332   1.428       .  S
C1326      C1327   1.398       .  A
C1326      H1331   1.084       .  S
C1327      C1328   1.409       .  A
C1328      N1329   1.432       .  S
N1329      O1333   1.262       .  A
N1329      O1334   1.260       .  A
N1332      O1336   1.262       .  A
N1332      O1335   1.262   1_455  A
C1337      C1338   1.418       .  A
C1337      C1342   1.409       .  A
C1337      H1344   1.079       .  S
C1338      C1339   1.434       .  A
C1339      C1340   1.407       .  A
C1339      N1346   1.427       .  S
C1340      C1341   1.398       .  A
C1340      H1345   1.084       .  S
C1341      C1342   1.410       .  A
C1342      N1343   1.431       .  S
N1343      O1347   1.262       .  A
N1343      O1348   1.262       .  A
N1346      O1350   1.263       .  A
N1346      O1349   1.261       .  A
C1351      C1352   1.412       .  A
C1351      C1356   1.412       .  A
C1351      H1358   1.082       .  S
C1352      C1353   1.418       .  A
C1353      C1354   1.398       .  A
C1353      N1360   1.419       .  S
C1354      C1355   1.393       .  A
C1354      H1359   1.085       .  S
C1355      C1356   1.411       .  A
C1356      N1357   1.428       .  S
N1357      O1361   1.262       .  A
N1357      O1362   1.262       .  A
N1360      O1364   1.262       .  A
N1360      O1363   1.263       .  A
C1365      C1366   1.403       .  A
C1365      C1370   1.415       .  A
C1365      H1372   1.083       .  S
C1366      C1367   1.409       .  A
C1367      C1368   1.407       .  A
C1367      N1374   1.428       .  S
C1368      C1369   1.407       .  A
C1368      H1373   1.083       .  S
C1369      C1370   1.424       .  A
C1370      N1371   1.445       .  S
N1371      O1375   1.263       .  A
N1371      O1376   1.261       .  A
N1374      O1378   1.262       .  A
N1374      O1377   1.262       .  A
C1379      C1380   1.412       .  A
C1379      C1384   1.405       .  A
C1379      H1386   1.077       .  S
C1380      C1381   1.426       .  A
C1381      C1382   1.414       .  A
C1381      N1388   1.428       .  S
C1382      C1383   1.406       .  A
C1382      H1387   1.084       .  S
C1383      C1384   1.410       .  A
C1384      N1385   1.429       .  S
N1385      O1389   1.262       .  A
N1385      O1390   1.262       .  A
N1388      O1392   1.260       .  A
N1388      O1391   1.263       .  A
C1393      C1394   1.407       .  A
C1393      C1398   1.402       .  A
C1393      H1400   1.082       .  S
C1394      C1395   1.417       .  A
C1395      C1396   1.410       .  A
C1395      N1402   1.428       .  S
C1396      C1397   1.405       .  A
C1396      H1401   1.084       .  S
C1397      C1398   1.411       .  A
C1398      N1399   1.430       .  S
N1399      O1403   1.262       .  A
N1399      O1404   1.262       .  A
N1402      O1406   1.261       .  A
N1402      O1405   1.262       .  A
C1407      C1408   1.408       .  A
C1407      C1412   1.416       .  A
C1407      H1414   1.080       .  S
C1408      C1409   1.403       .  A
C1409      C1410   1.404       .  A
C1409      N1416   1.430       .  S
C1410      C1411   1.402       .  A
C1410      H1415   1.027       .  S
C1411      C1412   1.417       .  A
C1412      N1413   1.435       .  S
N1413      O1417   1.262       .  A
N1413      O1418   1.262       .  A
N1416      O1420   1.261       .  A
N1416      O1419   1.262       .  A
