geometry optimzed in LAMMPS
_audit_creation_date              2020-11-30 
_audit_creation_method            'lammps2cif' 
_symmetry_space_group_name_H-M    'P1' 
_symmetry_Int_Tables_number       1 
_symmetry_cell_setting            triclinic 
loop_ 
_symmetry_equiv_pos_as_xyz 
  x,y,z 
_cell_length_a                    49.53965563 
_cell_length_b                    39.199042206577296 
_cell_length_c                    30.033526043419158 
_cell_angle_alpha                 89.42183358086476 
_cell_angle_beta                  90.36067789013107 
_cell_angle_gamma                 90.05585556498544 
loop_ 
_atom_site_label 
_atom_site_type_symbol 
_atom_site_fract_x 
_atom_site_fract_y 
_atom_site_fract_z 
_atom_site_charge 
In1        In  0.49908213  0.13748741  0.54762209     1.36900
C2          C  0.49862175  0.07524126  0.51488476     0.77100
O3          O  0.45423356  0.13428358  0.54765481    -0.61400
O4          O  0.47248134  0.17216664  0.50672958    -0.52300
C5          C  0.50192033  0.15010665  0.63355085     0.69700
O6          O  0.50024963  0.12067116  0.61762506    -0.47100
C7          C  0.54757321  0.15547375  0.51999171     0.74400
O8          O  0.49584281  0.08112487  0.55571573    -0.59000
O9          O  0.52670221  0.17189473  0.50857767    -0.49100
O10         O  0.50126192  0.10135073  0.49046395    -0.55400
C11         C  0.45110106  0.15725360  0.51857513     0.84600
O12         O  0.50125983  0.17413909  0.60525252    -0.57300
O13         O  0.54360407  0.13113926  0.54679921    -0.60600
In14       In  0.79553288  0.38899035  0.56518657     1.36900
C15         C  0.84469378  0.37852505  0.53254863     0.77100
O16         O  0.79072819  0.33238654  0.55921830    -0.61400
O17         O  0.76221741  0.36367905  0.52549242    -0.52300
C18         C  0.78514335  0.38846848  0.65215295     0.69700
O19         O  0.80849673  0.38636184  0.63625413    -0.47100
C20         C  0.78935093  0.45390651  0.53923286     0.74400
O21         O  0.83882198  0.37312329  0.57272480    -0.59000
O22         O  0.77488394  0.43012890  0.52409481    -0.49100
O23         O  0.82520637  0.38874672  0.50878896    -0.55400
C24         C  0.77044948  0.33384419  0.53389166     0.84600
O25         O  0.76661163  0.39180663  0.62339781    -0.57300
O26         O  0.80556771  0.44463448  0.56945608    -0.60600
In27       In  0.70588939  0.15273562  0.42774172     1.36900
C28         C  0.65512758  0.16134603  0.45145112     0.77100
O29         O  0.69919215  0.11161282  0.47886606    -0.61400
O30         O  0.73120056  0.10482938  0.43377761    -0.52300
C31         C  0.71129014  0.14783215  0.33991242     0.69700
O32         O  0.68899043  0.15297094  0.35855516    -0.47100
C33         C  0.73025488  0.20846022  0.45808260     0.74400
O34         O  0.66208006  0.13897459  0.42379312    -0.59000
O35         O  0.73517863  0.17912272  0.47380911    -0.49100
O36         O  0.67402914  0.18003387  0.46526030    -0.55400
C37         C  0.71749554  0.09232883  0.46512048     0.84600
O38         O  0.73117714  0.14626395  0.36622827    -0.57300
O39         O  0.71446297  0.20861048  0.42508609    -0.60600
In40       In  0.99896135  0.38967619  0.42393725     1.36900
C41         C  0.99929402  0.45183140  0.45662020     0.77100
O42         O  0.95383363  0.38962166  0.42026613    -0.61400
O43         O  0.97252453  0.36235043  0.47344051    -0.52300
C44         C  0.00309633  0.37696873  0.33777257     0.69700
O45         O  0.00383485  0.40652029  0.35373052    -0.47100
C46         C  0.04659703  0.36760224  0.45067385     0.74400
O47         O  0.99142469  0.44569066  0.41754850    -0.59000
O48         O  0.02533060  0.35067623  0.45814749    -0.49100
O49         O  0.00702035  0.42624712  0.47884768    -0.55400
C50         C  0.95091638  0.37331935  0.45620495     0.84600
O51         O  0.99958997  0.35339993  0.36617021    -0.57300
O52         O  0.04338449  0.39465688  0.42828909    -0.60600
In53       In  0.20426853  0.36938260  0.55051317     1.36900
C54         C  0.15466418  0.35892325  0.51828148     0.77100
O55         O  0.19416205  0.42510386  0.55462501    -0.61400
O56         O  0.22456400  0.41078369  0.50929568    -0.52300
C57         C  0.21285827  0.36974805  0.63825722     0.69700
O58         O  0.18987963  0.36796266  0.62051829    -0.47100
C59         C  0.22909045  0.31520815  0.51512351     0.74400
O60         O  0.16265040  0.34669342  0.55492706    -0.59000
O61         O  0.23691907  0.34541012  0.50812707    -0.49100
O62         O  0.17243745  0.37555907  0.49763225    -0.55400
C63         C  0.20991141  0.43445462  0.52401894     0.84600
O64         O  0.23209825  0.37231978  0.61100197    -0.57300
O65         O  0.20988731  0.31294684  0.54213647    -0.60600
In66       In  0.29735924  0.13735579  0.40526394     1.36900
C67         C  0.34567727  0.15198970  0.43980756     0.77100
O68         O  0.29017045  0.19394045  0.40280393    -0.61400
O69         O  0.26673497  0.16450526  0.44758344    -0.52300
C70         C  0.28959675  0.13045591  0.31759909     0.69700
O71         O  0.31249259  0.13125470  0.33590138    -0.47100
C72         C  0.28842192  0.07396214  0.43573051     0.74400
O73         O  0.33877093  0.16031245  0.40080740    -0.59000
O74         O  0.27239719  0.09829653  0.44308784    -0.49100
O75         O  0.32767711  0.13626048  0.46118217    -0.55400
C76         C  0.27286657  0.19383911  0.43325134     0.84600
O77         O  0.27017468  0.13285174  0.34440787    -0.57300
O78         O  0.30832125  0.08191516  0.41177987    -0.60600
In79       In  0.50442982  0.87452629  0.42264939     1.36900
C80         C  0.50280302  0.93779803  0.45117052     0.77100
O81         O  0.46082857  0.88509213  0.42367902    -0.61400
O82         O  0.47416419  0.83877355  0.45393017    -0.52300
C83         C  0.50622857  0.85653044  0.33818326     0.69700
O84         O  0.50991787  0.88659055  0.35129356    -0.47100
C85         C  0.55196223  0.85921371  0.45802672     0.74400
O86         O  0.50408788  0.93072764  0.41035585    -0.59000
O87         O  0.53027860  0.84795246  0.47448351    -0.49100
O88         O  0.50255237  0.91247636  0.47734219    -0.55400
C89         C  0.45462499  0.85858733  0.44525689     0.84600
O90         O  0.50150977  0.83491712  0.36864174    -0.57300
O91         O  0.54923579  0.87543688  0.42198251    -0.60600
In92       In  0.79393651  0.65428097  0.43023540     1.36900
C93         C  0.84208389  0.66650796  0.46638216     0.77100
O94         O  0.79010925  0.71113266  0.43158883    -0.61400
O95         O  0.75984906  0.68169326  0.46384389    -0.52300
C96         C  0.78520216  0.65019561  0.34300971     0.69700
O97         O  0.80753669  0.65841375  0.35991419    -0.47100
C98         C  0.78854690  0.59071755  0.46293171     0.74400
O99         O  0.83898959  0.65864829  0.42610339    -0.59000
O100        O  0.77380096  0.61498043  0.47546958    -0.49100
O101        O  0.82040292  0.66834313  0.48784383    -0.55400
C102        C  0.76940854  0.71099568  0.45574633     0.84600
O103        O  0.76646043  0.64548390  0.37072688    -0.57300
O104        O  0.80457031  0.59879055  0.43231048    -0.60600
In105      In  0.70612419  0.89147766  0.56424945     1.36900
C106        C  0.65791608  0.87546598  0.53194999     0.77100
O107        O  0.69437329  0.94644852  0.55580072    -0.61400
O108        O  0.73169577  0.93078458  0.52850669    -0.52300
C109        C  0.71304482  0.89808794  0.65198210     0.69700
O110        O  0.69047066  0.89892656  0.63276261    -0.47100
C111        C  0.73087118  0.83587538  0.53453404     0.74400
O112        O  0.66519739  0.86849643  0.57120003    -0.59000
O113        O  0.73829220  0.86561031  0.52381607    -0.49100
O114        O  0.67549839  0.89053548  0.50874127    -0.55400
C115        C  0.71518405  0.95479168  0.53438205     0.84600
O116        O  0.73266050  0.89395970  0.62599924    -0.57300
O117        O  0.71205444  0.83492167  0.56239740    -0.60600
In118      In  0.99919590  0.64907100  0.55863758     1.36900
C119        C  0.00001639  0.58693801  0.52712454     0.77100
O120        O  0.95576954  0.63902741  0.55249521    -0.61400
O121        O  0.96929241  0.68857250  0.53355557    -0.52300
C122        C  0.99800464  0.65932508  0.64512877     0.69700
O123        O  0.99503096  0.63053430  0.62758591    -0.47100
C124        C  0.04655860  0.66409632  0.52275302     0.74400
O125        O  0.00709612  0.59341370  0.56654713    -0.59000
O126        O  0.02460940  0.67340301  0.50483435    -0.49100
O127        O  0.99264143  0.61226005  0.50394877    -0.55400
C128        C  0.94968853  0.66795385  0.53711732     0.84600
O129        O  0.00127609  0.68389015  0.61805036    -0.57300
O130        O  0.04421456  0.65109926  0.56099643    -0.60600
In131      In  0.29703325  0.87318046  0.54147178     1.36900
C132        C  0.34658005  0.86154445  0.51288253     0.77100
O133        O  0.28706532  0.81724491  0.54352096    -0.61400
O134        O  0.26467473  0.84798579  0.49869285    -0.52300
C135        C  0.29379885  0.87469558  0.63008356     0.69700
O136        O  0.31524369  0.86783630  0.60970140    -0.47100
C137        C  0.28808864  0.93647376  0.50833978     0.74400
O138        O  0.34204973  0.87849711  0.54763787    -0.59000
O139        O  0.30577717  0.91657136  0.49406630    -0.49100
O140        O  0.32582298  0.85006591  0.49366129    -0.55400
C141        C  0.26957173  0.81821007  0.51303250     0.84600
O142        O  0.27382617  0.88074257  0.60499573    -0.57300
O143        O  0.27398365  0.92376983  0.53908077    -0.60600
In144      In  0.20098243  0.63542540  0.41373365     1.36900
C145        C  0.15205653  0.64788524  0.44612211     0.77100
O146        O  0.19072624  0.57930646  0.41462045    -0.61400
O147        O  0.22104438  0.59590935  0.45898974    -0.52300
C148        C  0.20898086  0.63109607  0.32580649     0.69700
O149        O  0.18663335  0.63748410  0.34340004    -0.47100
C150        C  0.22650068  0.69217054  0.44063837     0.74400
O151        O  0.15745169  0.64979155  0.40528806    -0.59000
O152        O  0.23554469  0.66265223  0.44870881    -0.49100
O153        O  0.17181379  0.63963306  0.47057020    -0.55400
C154        C  0.20680052  0.57128277  0.44564799     0.84600
O155        O  0.22808282  0.62716194  0.35348082    -0.57300
O156        O  0.20544706  0.69256632  0.41707856    -0.60600
In157      In  0.49904137  0.87237851  0.06361115     1.36900
C158        C  0.49943169  0.93354334  0.02627414     0.77100
O159        O  0.54372744  0.87476787  0.06395159    -0.61400
O160        O  0.52484374  0.84253407  0.01641296    -0.52300
C161        C  0.50223191  0.85643058  0.14919380     0.69700
O162        O  0.50288451  0.88665811  0.13459047    -0.47100
C163        C  0.44949501  0.85645045  0.03882561     0.74400
O164        O  0.49983881  0.92930176  0.06802873    -0.59000
O165        O  0.46910810  0.83639676  0.03299433    -0.49100
O166        O  0.49865142  0.90653779  0.00396076    -0.55400
C167        C  0.54641870  0.85573979  0.03081551     0.84600
O168        O  0.49918696  0.83381994  0.11992843    -0.57300
O169        O  0.45513688  0.88285658  0.06053734    -0.60600
In170      In  0.79261070  0.64796471  0.06431656     1.36900
C171        C  0.84120940  0.66588801  0.03497957     0.77100
O172        O  0.80470794  0.59341901  0.05554847    -0.61400
O173        O  0.76554758  0.60803265  0.03368316    -0.52300
C174        C  0.78520777  0.64207757  0.15167214     0.69700
O175        O  0.80812531  0.64225603  0.13375160    -0.47100
C176        C  0.76724891  0.70285896  0.03223093     0.74400
O177        O  0.83316647  0.67289630  0.07346112    -0.59000
O178        O  0.76803749  0.67519854  0.01128783    -0.49100
O179        O  0.82437292  0.64966787  0.01179521    -0.55400
C180        C  0.78295513  0.58461965  0.03695361     0.84600
O181        O  0.76566664  0.64377920  0.12451958    -0.57300
O182        O  0.77777888  0.70150351  0.07039718    -0.60600
In183      In  0.70151534  0.88603001  0.93031252     1.36900
C184        C  0.65210040  0.87057352  0.95828323     0.77100
O185        O  0.71510588  0.83198018  0.92068526    -0.61400
O186        O  0.72454452  0.85580747  0.98178598    -0.52300
C187        C  0.70992639  0.89576863  0.84389156     0.69700
O188        O  0.68677624  0.89462967  0.86093806    -0.47100
C189        C  0.71470524  0.94742681  0.96060981     0.74400
O190        O  0.66039540  0.86306776  0.92013474    -0.59000
O191        O  0.72944421  0.92161056  0.96722941    -0.49100
O192        O  0.66896031  0.88639638  0.98185505    -0.55400
C193        C  0.72524152  0.82902863  0.95904141     0.84600
O194        O  0.72914122  0.89246321  0.87146008    -0.57300
O195        O  0.69372981  0.94186110  0.93781708    -0.60600
In196      In  0.99086712  0.64724186  0.92275753     1.36900
C197        C  0.98823770  0.58495818  0.95601611     0.77100
O198        O  0.03400694  0.63248870  0.92699033    -0.61400
O199        O  0.02367270  0.68173073  0.94996390    -0.52300
C200        C  0.99171016  0.65772127  0.83579144     0.69700
O201        O  0.98648771  0.62935299  0.85356977    -0.47100
C202        C  0.94540833  0.67127711  0.95670172     0.74400
O203        O  0.98643644  0.59125909  0.91492400    -0.59000
O204        O  0.96828795  0.68090261  0.97029238    -0.49100
O205        O  0.99040552  0.61075438  0.98056288    -0.55400
C206        C  0.04193557  0.65967144  0.94458735     0.84600
O207        O  0.99503839  0.68195833  0.86269164    -0.57300
O208        O  0.94603247  0.65178272  0.92372266    -0.60600
In209      In  0.19942522  0.63854092  0.04580083     1.36900
C210        C  0.15075859  0.65091031  0.01142790     0.77100
O211        O  0.20435616  0.69491185  0.03779145    -0.61400
O212        O  0.23570585  0.66326810  0.01395544    -0.52300
C213        C  0.20821465  0.63686958  0.13351354     0.69700
O214        O  0.18697727  0.64839263  0.11579096    -0.47100
C215        C  0.20388968  0.57470745  0.01532192     0.74400
O216        O  0.15443121  0.64070276  0.05089869    -0.59000
O217        O  0.21727739  0.59928102  0.99935927    -0.49100
O218        O  0.17216482  0.65456278  0.98951965    -0.55400
C219        C  0.22645143  0.69315246  0.01741873     0.84600
O220        O  0.22604191  0.62787451  0.10618613    -0.57300
O221        O  0.18941223  0.58273597  0.04779417    -0.60600
In222      In  0.29854222  0.87028387  0.91064765     1.36900
C223        C  0.34549130  0.86047718  0.95248093     0.77100
O224        O  0.30513903  0.92655928  0.90363343    -0.61400
O225        O  0.27955469  0.90990908  0.95548528    -0.52300
C226        C  0.29371706  0.86935111  0.82261734     0.69700
O227        O  0.31460872  0.85951432  0.84310556    -0.47100
C228        C  0.27158046  0.81505468  0.93643487     0.74400
O229        O  0.34383408  0.87166695  0.91308846    -0.59000
O230        O  0.26175473  0.84471759  0.93957872    -0.49100
O231        O  0.32303857  0.85448114  0.97018733    -0.55400
C232        C  0.29136494  0.93471306  0.93686702     0.84600
O233        O  0.27442654  0.87803728  0.84736539    -0.57300
O234        O  0.29405817  0.81384932  0.91712631    -0.60600
In235      In  0.50142471  0.12822720  0.90824839     1.36900
C236        C  0.50144142  0.06653969  0.94397124     0.77100
O237        O  0.54589315  0.13017872  0.89950440    -0.61400
O238        O  0.52988443  0.15206670  0.95782210    -0.52300
C239        C  0.50252714  0.14370278  0.82302194     0.69700
O240        O  0.50204048  0.11342160  0.83768990    -0.47100
C241        C  0.45197603  0.14729053  0.92906481     0.74400
O242        O  0.50117903  0.07139182  0.90233224    -0.59000
O243        O  0.47206596  0.16667240  0.93540505    -0.49100
O244        O  0.50185305  0.09321858  0.96703196    -0.55400
C245        C  0.55073476  0.14349772  0.93660439     0.84600
O246        O  0.50166557  0.16662383  0.85228687    -0.57300
O247        O  0.45755232  0.11927334  0.91133779    -0.60600
In248      In  0.79004285  0.38702897  0.93147585     1.36900
C249        C  0.83969017  0.37695102  0.96326572     0.77100
O250        O  0.79354556  0.44416243  0.92845494    -0.61400
O251        O  0.77020788  0.42230730  0.98026582    -0.52300
C252        C  0.78202716  0.38874447  0.84354885     0.69700
O253        O  0.80485535  0.39179593  0.86162693    -0.47100
C254        C  0.76614321  0.33029614  0.96108688     0.74400
O255        O  0.83213505  0.36697645  0.92547492    -0.59000
O256        O  0.75467227  0.35900088  0.96208218    -0.49100
O257        O  0.82172424  0.39218973  0.98486618    -0.55400
C258        C  0.77994415  0.44910187  0.96315112     0.84600
O259        O  0.76264683  0.38633618  0.87047497    -0.57300
O260        O  0.78926356  0.33081678  0.94414961    -0.60600
In261      In  0.70380573  0.14424797  0.06032677     1.36900
C262        C  0.65612958  0.14726000  0.01985253     0.77100
O263        O  0.70191995  0.20099663  0.05067139    -0.61400
O264        O  0.73776677  0.17569121  0.03210704    -0.52300
C265        C  0.71087786  0.14197211  0.14828153     0.69700
O266        O  0.68820874  0.14565934  0.12974325    -0.47100
C267        C  0.71729523  0.08217793  0.03276397     0.74400
O268        O  0.65875878  0.15040830  0.06139883    -0.59000
O269        O  0.72942837  0.10876336  0.01988488    -0.49100
O270        O  0.67790053  0.14305047  0.99911095    -0.55400
C271        C  0.72497537  0.20343245  0.03363589     0.84600
O272        O  0.73035736  0.14005081  0.12163142    -0.57300
O273        O  0.69922062  0.08730008  0.06124735    -0.60600
In274      In  0.99692040  0.38611631  0.06077410     1.36900
C275        C  0.99359445  0.44857905  0.02713497     0.77100
O276        O  0.04100706  0.39409278  0.05130385    -0.61400
O277        O  0.02407885  0.34808567  0.02690868    -0.52300
C278        C  0.00212197  0.37407580  0.14719384     0.69700
O279        O  0.00073450  0.40347795  0.13023050    -0.47100
C280        C  0.94778482  0.36806727  0.03413402     0.74400
O281        O  0.99372435  0.44265130  0.06842320    -0.59000
O282        O  0.96881493  0.35639366  0.01641494    -0.49100
O283        O  0.99546408  0.42253394  0.00310421    -0.55400
C284        C  0.04481785  0.36658080  0.03105254     0.84600
O285        O  0.00024035  0.34998178  0.11970725    -0.57300
O286        O  0.95206279  0.38586794  0.06806726    -0.60600
In287      In  0.29756775  0.13577502  0.03797243     1.36900
C288        C  0.34462836  0.14825648  0.99891102     0.77100
O289        O  0.30870246  0.08056501  0.03554414    -0.61400
O290        O  0.27591022  0.09651736  0.99518858    -0.52300
C291        C  0.28964723  0.13137769  0.12556357     0.69700
O292        O  0.31222986  0.13769167  0.10835561    -0.47100
C293        C  0.27297345  0.19380105  0.01558033     0.74400
O294        O  0.34248915  0.14063033  0.03962580    -0.59000
O295        O  0.26283973  0.16493074  0.00715279    -0.49100
O296        O  0.32243982  0.14966275  0.97824932    -0.55400
C297        C  0.29145805  0.07243137  0.00666099     0.84600
O298        O  0.27058000  0.12784885  0.09790911    -0.57300
O299        O  0.29481089  0.19273757  0.03728294    -0.60600
In300      In  0.19874077  0.37318515  0.91680626     1.36900
C301        C  0.15026470  0.36257295  0.95267801     0.77100
O302        O  0.20386949  0.31672750  0.92346467    -0.61400
O303        O  0.23317129  0.34839577  0.95450335    -0.52300
C304        C  0.20957476  0.37055590  0.82988514     0.69700
O305        O  0.18721391  0.36222685  0.84647533    -0.47100
C306        C  0.20403629  0.43737747  0.94458264     0.74400
O307        O  0.15333520  0.37330325  0.91332545    -0.59000
O308        O  0.21886710  0.41355590  0.95913407    -0.49100
O309        O  0.17211335  0.35682456  0.97290954    -0.55400
C310        C  0.22475149  0.31843713  0.94757302     0.84600
O311        O  0.22676648  0.38060428  0.85802037    -0.57300
O312        O  0.18784673  0.42862205  0.91436457    -0.60600
C313        C  0.23345249  0.23344731  0.00778639    -0.02400
C314        C  0.26088925  0.22637345  0.99994922     0.07300
C315        C  0.27685343  0.25049185  0.97665121    -0.02500
C316        C  0.26530970  0.28120733  0.96083592    -0.02500
C317        C  0.23760063  0.28756519  0.96702609     0.07500
C318        C  0.22179948  0.26379921  0.99110372    -0.02700
Br319      Br  0.18440017  0.27362813  0.00345591    -0.01200
Br320      Br  0.21213672  0.20247726  0.04353469    -0.01300
Br321      Br  0.28725198  0.31384987  0.92888361    -0.01300
Br322      Br  0.31417639  0.24063023  0.96349055    -0.01200
C323        C  0.07436221  0.35180532  0.96670435    -0.02400
C324        C  0.07149673  0.35814307  0.01252193     0.07300
C325        C  0.09462236  0.36138880  0.03957849    -0.02500
C326        C  0.12039675  0.36284270  0.02031683    -0.02500
C327        C  0.12339537  0.35820872  0.97383819     0.07500
C328        C  0.10027471  0.35076260  0.94764712    -0.02700
Br329      Br  0.10362271  0.33840108  0.88577112    -0.01200
Br330      Br  0.04279531  0.34714188  0.92916161    -0.01300
Br331      Br  0.15070620  0.37452880  0.05817651    -0.01300
Br332      Br  0.09091521  0.36300136  0.10353565    -0.01200
C333        C  0.87163942  0.36171623  0.02549972    -0.02400
C334        C  0.86738210  0.37144582  0.98058790     0.07300
C335        C  0.88974924  0.37645480  0.95234894    -0.02500
C336        C  0.91616675  0.37280623  0.96921071    -0.02500
C337        C  0.92044909  0.36452547  0.01462789     0.07500
C338        C  0.89808868  0.35825483  0.04241291    -0.02700
Br339      Br  0.90363871  0.34424276  0.10362596    -0.01200
Br340      Br  0.84132329  0.35247735  0.06402531    -0.01300
Br341      Br  0.94627399  0.38243737  0.93035563    -0.01300
Br342      Br  0.88456544  0.39177351  0.89143243    -0.01200
C343        C  0.74233284  0.29757585  0.02153381    -0.02400
C344        C  0.75409176  0.29842695  0.97881916     0.07300
C345        C  0.75600794  0.26806260  0.95412853    -0.02500
C346        C  0.74711342  0.23690395  0.97254057    -0.02500
C347        C  0.73556332  0.23597029  0.01540596     0.07500
C348        C  0.73289506  0.26649190  0.03959217    -0.02700
Br349      Br  0.71759127  0.26570751  0.09863434    -0.01200
Br350      Br  0.74040025  0.33848122  0.05677265    -0.01300
Br351      Br  0.74956048  0.19586870  0.93755390    -0.01300
Br352      Br  0.76918484  0.26927032  0.89364601    -0.01200
C353        C  0.58590114  0.17401938  0.98219865    -0.02400
C354        C  0.57852534  0.14630197  0.95491962     0.07300
C355        C  0.59738018  0.11970726  0.94768528    -0.02500
C356        C  0.62253065  0.12001210  0.96960520    -0.02500
C357        C  0.62962976  0.14741400  0.99723736     0.07500
C358        C  0.61143583  0.17458797  0.00315409    -0.02700
Br359      Br  0.62186251  0.21318155  0.03885396    -0.01200
Br360      Br  0.56179958  0.21229951  0.98911722    -0.01300
Br361      Br  0.64637720  0.08115362  0.96492490    -0.01300
Br362      Br  0.58909234  0.08150455  0.90946462    -0.01200
C363        C  0.41892765  0.16892596  0.98506450    -0.02400
C364        C  0.42405040  0.15503804  0.94281619     0.07300
C365        C  0.40223989  0.14381927  0.91617408    -0.02500
C366        C  0.37592992  0.14282573  0.93355626    -0.02500
C367        C  0.37113474  0.15411368  0.97740618     0.07500
C368        C  0.39248024  0.16905438  0.00189631    -0.02700
Br369      Br  0.38572125  0.19035575  0.05851933    -0.01200
Br370      Br  0.44817680  0.18503744  0.02215683    -0.01300
Br371      Br  0.34733033  0.12339843  0.89770656    -0.01300
Br372      Br  0.40836107  0.12955042  0.85551365    -0.01200
C373        C  0.31517090  0.98851741  0.95808050    -0.02400
C374        C  0.29071778  0.97022405  0.95369292     0.07300
C375        C  0.26622304  0.98596222  0.96571159    -0.02500
C376        C  0.26619855  0.01964918  0.98214939    -0.02500
C377        C  0.29071143  0.03772676  0.98707705     0.07500
C378        C  0.31514266  0.02208231  0.97430039    -0.02700
Br379      Br  0.34888331  0.04692627  0.97703987    -0.01200
Br380      Br  0.34931778  0.96703771  0.94465420    -0.01300
Br381      Br  0.23261356  0.04031959  0.99960111    -0.01300
Br382      Br  0.23255364  0.96177591  0.95861031    -0.01200
C383        C  0.17987542  0.52090914  0.99317413    -0.02400
C384        C  0.20426896  0.53955488  0.99702092     0.07300
C385        C  0.22869767  0.52431096  0.98337585    -0.02500
C386        C  0.22869117  0.49100184  0.96591212    -0.02500
C387        C  0.20440919  0.47241114  0.96266636     0.07500
C388        C  0.18005474  0.48737952  0.97674377    -0.02700
Br389      Br  0.14686998  0.46128580  0.97571822    -0.01200
Br390      Br  0.14562147  0.54150088  0.00796006    -0.01300
Br391      Br  0.26184446  0.47138294  0.94460521    -0.01300
Br392      Br  0.26256239  0.54807546  0.99032490    -0.01200
C393        C  0.24056894  0.75451260  0.02144772    -0.02400
C394        C  0.23940378  0.72375257  0.99743135     0.07300
C395        C  0.24856112  0.72319729  0.95295829    -0.02500
C396        C  0.25833089  0.75328102  0.93256078    -0.02500
C397        C  0.25900432  0.78418646  0.95633689     0.07500
C398        C  0.25023661  0.78459651  0.00100637    -0.02700
Br399      Br  0.25316768  0.82572599  0.03575598    -0.01200
Br400      Br  0.23067484  0.75514356  0.08358214    -0.01300
Br401      Br  0.26974402  0.75223036  0.87118029    -0.01300
Br402      Br  0.24667355  0.68171276  0.91873703    -0.01200
C403        C  0.00880951  0.52727627  0.95817474    -0.02400
C404        C  0.98899823  0.54998375  0.97361165     0.07300
C405        C  0.97027129  0.53929241  0.00588279    -0.02500
C406        C  0.97136956  0.50575702  0.02282697    -0.02500
C407        C  0.99173043  0.48329684  0.00840675     0.07500
C408        C  0.01044794  0.49412674  0.97604869    -0.02700
Br409      Br  0.03944769  0.46441943  0.95801111    -0.01200
Br410      Br  0.03455200  0.54196793  0.91382002    -0.01300
Br411      Br  0.94384956  0.49011438  0.06342881    -0.01300
Br412      Br  0.94229223  0.57010332  0.02499814    -0.01200
C413        C  0.07624079  0.67312318  0.00338432    -0.02400
C414        C  0.07026264  0.66371736  0.95923786     0.07300
C415        C  0.09125982  0.65310111  0.93106289    -0.02500
C416        C  0.11770495  0.64943870  0.94766616    -0.02500
C417        C  0.12355992  0.65756087  0.99246848     0.07500
C418        C  0.10289330  0.67077324  0.01965160    -0.02700
Br419      Br  0.11076423  0.68626115  0.07926366    -0.01200
Br420      Br  0.04765932  0.68586132  0.04338020    -0.01300
Br421      Br  0.14495841  0.63042698  0.90925990    -0.01300
Br422      Br  0.08385843  0.64319619  0.86936243    -0.01200
C423        C  0.72106119  0.01015980  0.94997676    -0.02400
C424        C  0.72078980  0.98152749  0.97872872     0.07300
C425        C  0.72374805  0.98609281  0.02505761    -0.02500
C426        C  0.72460064  0.01927580  0.04267178    -0.02500
C427        C  0.72230648  0.04795610  0.01412881     0.07500
C428        C  0.72173798  0.04331579  0.96756197    -0.02700
Br429      Br  0.71971313  0.08213903  0.92756795    -0.01200
Br430      Br  0.72071703  0.00382399  0.88627814    -0.01300
Br431      Br  0.72926414  0.02549036  0.10595250    -0.01300
Br432      Br  0.72465849  0.94712277  0.06489034    -0.01200
C433        C  0.77127668  0.51209185  0.95613581    -0.02400
C434        C  0.77713294  0.48335667  0.98325803     0.07300
C435        C  0.78276848  0.48799046  0.02904673    -0.02500
C436        C  0.78384756  0.52111960  0.04679070    -0.02500
C437        C  0.77884304  0.54982059  0.01933912     0.07500
C438        C  0.77203862  0.54516303  0.97413253    -0.02700
Br439      Br  0.76593149  0.58423268  0.93572768    -0.01200
Br440      Br  0.76197729  0.50638345  0.89416704    -0.01300
Br441      Br  0.79237863  0.52725371  0.10897562    -0.01300
Br442      Br  0.79106168  0.44946443  0.06743491    -0.01200
C443        C  0.89153862  0.67014770  0.04477390    -0.02400
C444        C  0.86824299  0.67508077  0.01811783     0.07300
C445        C  0.87098640  0.68611907  0.97356646    -0.02500
C446        C  0.89661785  0.68715619  0.95383471    -0.02500
C447        C  0.91980471  0.67918990  0.97933037     0.07500
C448        C  0.91733668  0.67297521  0.02556597    -0.02700
Br449      Br  0.94899180  0.66508267  0.06219942    -0.01200
Br450      Br  0.88846816  0.65624912  0.10647555    -0.01300
Br451      Br  0.89980828  0.69894842  0.89154618    -0.01300
Br452      Br  0.83962567  0.70073605  0.93986796    -0.01200
C453        C  0.73087300  0.73551804  0.99162777    -0.02400
C454        C  0.75630816  0.73488484  0.01304621     0.07300
C455        C  0.77176074  0.76515531  0.01572454    -0.02500
C456        C  0.76184477  0.79576770  0.99710568    -0.02500
C457        C  0.73623671  0.79654631  0.97652945     0.07500
C458        C  0.72067825  0.76641440  0.97407343    -0.02700
Br459      Br  0.68449859  0.76786574  0.94964222    -0.01200
Br460      Br  0.70924239  0.69459645  0.98815483    -0.01300
Br461      Br  0.78403270  0.83631056  0.99771817    -0.01300
Br462      Br  0.80727799  0.76470087  0.04290319    -0.01200
C463        C  0.47990795  0.97657708  0.97351048    -0.02400
C464        C  0.49995671  0.96742602  0.00496680     0.07300
C465        C  0.52072643  0.99055004  0.01567095    -0.02500
C466        C  0.52123624  0.02304523  0.99556814    -0.02500
C467        C  0.50108854  0.03234320  0.96441095     0.07500
C468        C  0.48030612  0.00920442  0.95361573    -0.02700
Br469      Br  0.45124822  0.02310300  0.91422987    -0.01200
Br470      Br  0.45128119  0.94494707  0.95891614    -0.01300
Br471      Br  0.55011449  0.05434490  0.00975598    -0.01300
Br472      Br  0.54951940  0.97692057  0.05567073    -0.01200
C473        C  0.60193389  0.86984194  0.94779234    -0.02400
C474        C  0.62480845  0.86188385  0.97416285     0.07300
C475        C  0.62145126  0.84703232  0.01677697    -0.02500
C476        C  0.59541941  0.84253624  0.03420118    -0.02500
C477        C  0.57268261  0.85228219  0.00889942     0.07500
C478        C  0.57588576  0.86489930  0.96512700    -0.02700
Br479      Br  0.54472608  0.87886419  0.93051806    -0.01200
Br480      Br  0.60601490  0.89074615  0.88967945    -0.01300
Br481      Br  0.59069757  0.82335762  0.09305906    -0.01300
Br482      Br  0.65239440  0.83227388  0.05124842    -0.01200
C483        C  0.37392243  0.86234280  0.02206089    -0.02400
C484        C  0.37155344  0.85525950  0.97608100     0.07300
C485        C  0.39446959  0.84408383  0.95249991    -0.02500
C486        C  0.41985300  0.84255001  0.97374514    -0.02500
C487        C  0.42242346  0.85146232  0.01902561     0.07500
C488        C  0.39925498  0.86039328  0.04335305    -0.02700
Br489      Br  0.40209638  0.87026593  0.10618971    -0.01200
Br490      Br  0.34309878  0.87689784  0.05623712    -0.01300
Br491      Br  0.45132177  0.83115223  0.93909993    -0.01300
Br492      Br  0.39134420  0.82987887  0.89116799    -0.01200
C493        C  0.23275436  0.64527340  0.25352811    -0.02400
C494        C  0.21164645  0.62857594  0.27663669     0.07300
C495        C  0.19116007  0.61188616  0.25211227    -0.02500
C496        C  0.19059628  0.61412455  0.20535281    -0.02500
C497        C  0.21077448  0.63245764  0.18239811     0.07500
C498        C  0.23234330  0.64708699  0.20644945    -0.02700
Br499      Br  0.26023040  0.67172015  0.17505843    -0.01200
Br500      Br  0.26125152  0.66778260  0.28598991    -0.01300
Br501      Br  0.16222910  0.59127862  0.17253800    -0.01300
Br502      Br  0.16406507  0.58477007  0.28227622    -0.01200
C503        C  0.31320297  0.89138170  0.70394831    -0.02400
C504        C  0.29245528  0.87534065  0.67938257     0.07300
C505        C  0.27120398  0.85879295  0.70225752    -0.02500
C506        C  0.27154950  0.85669920  0.74917161    -0.02500
C507        C  0.29270343  0.87189501  0.77349466     0.07500
C508        C  0.31331794  0.88964954  0.75076268    -0.02700
Br509      Br  0.34138274  0.91283100  0.78379286    -0.01200
Br510      Br  0.34076246  0.91767131  0.67385382    -0.01300
Br511      Br  0.24424064  0.83058853  0.77993014    -0.01300
Br512      Br  0.24209610  0.83754776  0.66973300    -0.01200
C513        C  0.24991547  0.75926152  0.52302583    -0.02400
C514        C  0.25728121  0.78658299  0.49441575     0.07300
C515        C  0.25534536  0.78211814  0.44778025    -0.02500
C516        C  0.24580825  0.75101306  0.43018917    -0.02500
C517        C  0.23853491  0.72386269  0.45886555     0.07500
C518        C  0.24087449  0.72800160  0.50532598    -0.02700
Br519      Br  0.23079119  0.69109360  0.54501755    -0.01200
Br520      Br  0.25096363  0.76485849  0.58680843    -0.01300
Br521      Br  0.24435215  0.74467221  0.36652137    -0.01300
Br522      Br  0.26766660  0.81745217  0.40746767    -0.01200
C523        C  0.01479554  0.64019757  0.71889741    -0.02400
C524        C  0.99844623  0.66274785  0.69384383     0.07300
C525        C  0.98090952  0.68538117  0.71563969    -0.02500
C526        C  0.97946411  0.68494746  0.76252383    -0.02500
C527        C  0.99487101  0.66114358  0.78729556     0.07500
C528        C  0.01251778  0.63874817  0.76532267    -0.02700
Br529      Br  0.03353864  0.60540450  0.79832927    -0.01200
Br530      Br  0.04085321  0.61143376  0.68961328    -0.01300
Br531      Br  0.95460423  0.71466177  0.79251766    -0.01300
Br532      Br  0.95710555  0.71461594  0.68145238    -0.01200
C533        C  0.07593805  0.64565100  0.46031360    -0.02400
C534        C  0.07278379  0.66467702  0.49961280     0.07300
C535        C  0.09555494  0.67939150  0.52012027    -0.02500
C536        C  0.12143171  0.67465508  0.50204555    -0.02500
C537        C  0.12474535  0.65452087  0.46373750     0.07500
C538        C  0.10184401  0.64030327  0.44265636    -0.02700
Br539      Br  0.10593748  0.61068638  0.39200050    -0.01200
Br540      Br  0.04508026  0.62421975  0.43254688    -0.01300
Br541      Br  0.15215965  0.69664277  0.52934920    -0.01300
Br542      Br  0.09114755  0.70638198  0.57288336    -0.01200
C543        C  0.73167006  0.87803888  0.77249194    -0.02400
C544        C  0.71375661  0.89966022  0.79524954     0.07300
C545        C  0.69771649  0.92307824  0.77085213    -0.02500
C546        C  0.69847454  0.92361921  0.72405095    -0.02500
C547        C  0.71556811  0.90101224  0.70105928     0.07500
C548        C  0.73290763  0.87909957  0.72558899    -0.02700
Br549      Br  0.75692387  0.84830980  0.69548223    -0.01200
Br550      Br  0.75231790  0.84403844  0.80495519    -0.01300
Br551      Br  0.67601111  0.95595376  0.69186687    -0.01300
Br552      Br  0.67454571  0.95480406  0.80130710    -0.01200
C553        C  0.76449877  0.66590133  0.26913496    -0.02400
C554        C  0.78214596  0.64527360  0.29457511     0.07300
C555        C  0.79880282  0.62142370  0.27322646    -0.02500
C556        C  0.79853428  0.61899712  0.22655998    -0.02500
C557        C  0.78205677  0.64100245  0.20070704     0.07500
C558        C  0.76463528  0.66408798  0.22222530    -0.02700
Br559      Br  0.74286393  0.69570191  0.18784552    -0.01200
Br560      Br  0.74178128  0.69857347  0.29843949    -0.01300
Br561      Br  0.82055960  0.58490652  0.19835178    -0.01300
Br562      Br  0.82212484  0.59185612  0.30808906    -0.01200
C563        C  0.87414665  0.66018728  0.53084885    -0.02400
C564        C  0.86895002  0.67205077  0.48700198     0.07300
C565        C  0.88998534  0.68759204  0.46234263    -0.02500
C566        C  0.91640894  0.68859010  0.47991055    -0.02500
C567        C  0.92172675  0.67519971  0.52279272     0.07500
C568        C  0.90029406  0.66254004  0.54891262    -0.02700
Br569      Br  0.90687915  0.64744627  0.60957956    -0.01200
Br570      Br  0.84657036  0.63716240  0.56530834    -0.01300
Br571      Br  0.94563593  0.70505618  0.44317911    -0.01300
Br572      Br  0.88300517  0.70759090  0.40429827    -0.01200
C573        C  0.74586869  0.80267957  0.46810423    -0.02400
C574        C  0.74207580  0.80451299  0.51463899     0.07300
C575        C  0.74687912  0.77531576  0.54149762    -0.02500
C576        C  0.75493781  0.74445889  0.52196143    -0.02500
C577        C  0.75862261  0.74262090  0.47545458     0.07500
C578        C  0.75433227  0.77193022  0.44871795    -0.02700
Br579      Br  0.75884806  0.76967075  0.38502974    -0.01200
Br580      Br  0.73790004  0.84149437  0.42999386    -0.01300
Br581      Br  0.76251536  0.70528557  0.55965595    -0.01300
Br582      Br  0.74395178  0.77780699  0.60555030     0.01200
C583        C  0.52987572  0.85995547  0.26589934    -0.02400
C584        C  0.50752898  0.84833988  0.29052231     0.07300
C585        C  0.48521287  0.83374602  0.26834699    -0.02500
C586        C  0.48429467  0.83374961  0.22140855    -0.02500
C587        C  0.50543208  0.84889734  0.19700704     0.07500
C588        C  0.52869975  0.86065362  0.21923440    -0.02700
Br589      Br  0.55883468  0.87835951  0.18566538    -0.01200
Br590      Br  0.56211339  0.87511888  0.29636592    -0.01300
Br591      Br  0.45315153  0.81581817  0.19066505    -0.01300
Br592      Br  0.45487548  0.81679768  0.30188469    -0.01200
C593        C  0.42151079  0.84278666  0.50491517    -0.02400
C594        C  0.42667964  0.85306219  0.46054177     0.07300
C595        C  0.40505311  0.86342418  0.43269725    -0.02500
C596        C  0.37889475  0.86609116  0.44996206    -0.02500
C597        C  0.37386779  0.85691098  0.49463148     0.07500
C598        C  0.39506244  0.84442122  0.52171786    -0.02700
Br599      Br  0.38789141  0.82959803  0.58194125    -0.01200
Br600      Br  0.45066285  0.82918257  0.54424944    -0.01300
Br601      Br  0.35065298  0.88587723  0.41334536    -0.01300
Br602      Br  0.41101214  0.87422264  0.37053290    -0.01200
C603        C  0.60108506  0.84582406  0.45663224    -0.02400
C604        C  0.57839281  0.85693069  0.48047960     0.07300
C605        C  0.58179607  0.87185263  0.52268579    -0.02500
C606        C  0.60787861  0.87692071  0.54011577    -0.02500
C607        C  0.63066429  0.86743124  0.51514007     0.07500
C608        C  0.62721904  0.85122841  0.47376339    -0.02700
Br609      Br  0.65818657  0.83620381  0.44053075    -0.01200
Br610      Br  0.59619524  0.82320400  0.40036924    -0.01300
Br611      Br  0.61223636  0.90011739  0.59628203    -0.01300
Br612      Br  0.55100453  0.88896917  0.55468297    -0.01200
C613        C  0.30290073  0.10453436  0.24506639    -0.02400
C614        C  0.28640184  0.12748846  0.26857545     0.07300
C615        C  0.26873315  0.14935514  0.24457996    -0.02500
C616        C  0.26863850  0.14939387  0.19754311    -0.02500
C617        C  0.28643202  0.12798550  0.17434281     0.07500
C618        C  0.30297994  0.10491057  0.19821726    -0.02700
Br619      Br  0.32553422  0.07321181  0.16652074    -0.01200
Br620      Br  0.32523310  0.07189060  0.27676878    -0.01300
Br621      Br  0.24562463  0.18064426  0.16491045    -0.01300
Br622      Br  0.24642107  0.18160549  0.27559563    -0.01200
C623        C  0.28381119  0.03363746  0.50098339    -0.02400
C624        C  0.28492922  0.03900644  0.45444694     0.07300
C625        C  0.28506947  0.01063669  0.42596424    -0.02500
C626        C  0.28476310  0.97721212  0.44371819    -0.02500
C627        C  0.28482705  0.97171558  0.49025843     0.07500
C628        C  0.28417728  0.00012616  0.51888583    -0.02700
Br629      Br  0.28671493  0.99350117  0.58259683    -0.01200
Br630      Br  0.28389852  0.07224881  0.54043917    -0.01300
Br631      Br  0.28385122  0.93879745  0.40392740    -0.01300
Br632      Br  0.28520811  0.01755107  0.36228173    -0.01200
C633        C  0.22846527  0.39484248  0.71071834    -0.02400
C634        C  0.21622486  0.36797480  0.68717842     0.07300
C635        C  0.20471852  0.34037735  0.71074368    -0.02500
C636        C  0.20435717  0.34026816  0.75753074    -0.02500
C637        C  0.21460751  0.36843526  0.78129319     0.07500
C638        C  0.22754852  0.39526146  0.75774761    -0.02700
Br639      Br  0.24227752  0.43392407  0.78903378    -0.01200
Br640      Br  0.24443670  0.43239372  0.67824855    -0.01300
Br641      Br  0.19058789  0.30062054  0.78884330    -0.01300
Br642      Br  0.18934569  0.30242977  0.67869815    -0.01200
C643        C  0.18377354  0.51807917  0.47434133    -0.02400
C644        C  0.20795497  0.53619839  0.46566519     0.07300
C645        C  0.23293183  0.52072272  0.47683347    -0.02500
C646        C  0.23371007  0.48764031  0.49614586    -0.02500
C647        C  0.20954656  0.46970249  0.50486114     0.07500
C648        C  0.18457302  0.48512014  0.49367528    -0.02700
Br649      Br  0.15107264  0.46050053  0.50255370    -0.01200
Br650      Br  0.14904038  0.53864677  0.46178452    -0.01300
Br651      Br  0.26799344  0.46742528  0.51205751    -0.01300
Br652      Br  0.26636486  0.54401770  0.46396911    -0.01200
C653        C  0.26867615  0.28105645  0.48721859    -0.02400
C654        C  0.24052310  0.28483809  0.49256555     0.07300
C655        C  0.22300763  0.25921422  0.47615977    -0.02500
C656        C  0.23355053  0.22963550  0.45641641    -0.02500
C657        C  0.26163511  0.22563357  0.45192362     0.07500
C658        C  0.27916685  0.25170271  0.46669626    -0.02700
Br659      Br  0.31782587  0.24640995  0.46132501    -0.01200
Br660      Br  0.29321062  0.31489284  0.51038283    -0.01300
Br661      Br  0.20937694  0.19518333  0.43357640    -0.01300
Br662      Br  0.18431395  0.26518431  0.47796037    -0.01200
C663        C  0.98795185  0.34917066  0.26686809    -0.02400
C664        C  0.00586158  0.37120803  0.28944663     0.07300
C665        C  0.02503030  0.39029313  0.26498322    -0.02500
C666        C  0.02481882  0.38940713  0.21825986    -0.02500
C667        C  0.00562199  0.36928387  0.19562997     0.07500
C668        C  0.98793712  0.34808933  0.21998377    -0.02700
Br669      Br  0.96181339  0.32009066  0.18936626    -0.01200
Br670      Br  0.96138308  0.32309790  0.29940744    -0.01300
Br671      Br  0.05089263  0.41618260  0.18520778    -0.01300
Br672      Br  0.05180866  0.41790797  0.29502429    -0.01200
C673        C  0.97561625  0.53840817  0.49320423    -0.02400
C674        C  0.99989436  0.55234219  0.50951881     0.07300
C675        C  0.02392900  0.53324037  0.50899110    -0.02500
C676        C  0.02378582  0.50022049  0.49135345    -0.02500
C677        C  0.99949319  0.48626407  0.47497045     0.07500
C678        C  0.97534706  0.50514251  0.47644537    -0.02700
Br679      Br  0.94158591  0.48464030  0.45847627    -0.01200
Br680      Br  0.94246768  0.56429395  0.49588663    -0.01300
Br681      Br  0.05708429  0.47476612  0.48789080    -0.01300
Br682      Br  0.05722736  0.55286838  0.53067764    -0.01200
C683        C  0.10453046  0.35691145  0.53123416    -0.02400
C684        C  0.12661377  0.35536720  0.50148311     0.07300
C685        C  0.12159198  0.35299154  0.45515372    -0.02500
C686        C  0.09498665  0.35459465  0.43873253    -0.02500
C687        C  0.07330060  0.35810408  0.46824429     0.07500
C688        C  0.07793422  0.35798178  0.51449018    -0.02700
Br689      Br  0.04785284  0.36246044  0.55475107    -0.01200
Br690      Br  0.11006556  0.36124175  0.59474331    -0.01300
Br691      Br  0.08791162  0.35208791  0.37552921    -0.01300
Br692      Br  0.15081550  0.34737513  0.41348907    -0.01200
C693        C  0.73347847  0.16108703  0.26665695    -0.02400
C694        C  0.71352259  0.14349755  0.29120522     0.07300
C695        C  0.69497274  0.12223312  0.26884864    -0.02500
C696        C  0.69517027  0.12040794  0.22214011    -0.02500
C697        C  0.71379240  0.13999088  0.19732015     0.07500
C698        C  0.73374914  0.15912352  0.21978738    -0.02700
Br699      Br  0.76066885  0.18421414  0.18671313    -0.01200
Br700      Br  0.75917482  0.19012107  0.29665602    -0.01300
Br701      Br  0.67063449  0.08958844  0.19234038    -0.01300
Br702      Br  0.66966295  0.09453941  0.30210823    -0.01200
C703        C  0.72000314  0.05136286  0.52936966    -0.02400
C704        C  0.72118842  0.05733149  0.48302914     0.07300
C705        C  0.72261828  0.02937887  0.45378360    -0.02500
C706        C  0.72213195  0.99573806  0.47082906    -0.02500
C707        C  0.71934961  0.98984865  0.51700062     0.07500
C708        C  0.71860474  0.01777266  0.54621771    -0.02700
Br709      Br  0.71571831  0.01014039  0.60955470    -0.01200
Br710      Br  0.72078707  0.08926795  0.57002437    -0.01300
Br711      Br  0.72287482  0.95779323  0.43034642    -0.01300
Br712      Br  0.72229639  0.03675856  0.39003131    -0.01200
C713        C  0.76598529  0.41193229  0.72304722    -0.02400
C714        C  0.78050806  0.38636437  0.70071346     0.07300
C715        C  0.79265569  0.35966321  0.72545674    -0.02500
C716        C  0.79208398  0.35990273  0.77221003    -0.02500
C717        C  0.77901863  0.38653261  0.79467974     0.07500
C718        C  0.76513480  0.41187857  0.77005208    -0.02700
Br719      Br  0.74642703  0.44762253  0.80069156    -0.01200
Br720      Br  0.74897855  0.44838132  0.68962408    -0.01300
Br721      Br  0.80899948  0.32327682  0.80556495    -0.01300
Br722      Br  0.80954167  0.32201139  0.69531963    -0.01200
C723        C  0.76399041  0.50614915  0.51267780    -0.02400
C724        C  0.78871027  0.48934081  0.52126406     0.07300
C725        C  0.81321372  0.50606404  0.51101031    -0.02500
C726        C  0.81301758  0.53936229  0.49298205    -0.02500
C727        C  0.78827385  0.55597734  0.48336459     0.07500
C728        C  0.76375147  0.53909236  0.49312981    -0.02700
Br729      Br  0.72969472  0.55985592  0.47712856    -0.01200
Br730      Br  0.73037385  0.48470029  0.52933685    -0.01300
Br731      Br  0.84712053  0.56235195  0.48319493    -0.01300
Br732      Br  0.84739608  0.48274169  0.51879252    -0.01200
C733        C  0.87628870  0.35788503  0.47367701    -0.02400
C734        C  0.87228879  0.37406289  0.51494108     0.07300
C735        C  0.89472620  0.38714893  0.53855613    -0.02500
C736        C  0.92072215  0.38530105  0.52009166    -0.02500
C737        C  0.92446732  0.37031296  0.47808467     0.07500
C738        C  0.90231034  0.35623433  0.45521835    -0.02700
Br739      Br  0.90786632  0.33421862  0.39884798    -0.01200
Br740      Br  0.84639633  0.33673295  0.44301379    -0.01300
Br741      Br  0.95087068  0.40613179  0.55071672    -0.01300
Br742      Br  0.88993338  0.41008643  0.59468140    -0.01200
C743        C  0.74097618  0.24482367  0.52441785    -0.02400
C744        C  0.74080242  0.24040864  0.47770191     0.07300
C745        C  0.74882554  0.26769891  0.44966566    -0.02500
C746        C  0.75704861  0.29896006  0.46805949    -0.02500
C747        C  0.75824159  0.30284121  0.51464241     0.07500
C748        C  0.75002507  0.27579106  0.54274167    -0.02700
Br749      Br  0.75001727  0.28177924  0.60652469    -0.01200
Br750      Br  0.72738494  0.20951139  0.56377364    -0.01300
Br751      Br  0.76790821  0.33590622  0.42911181    -0.01300
Br752      Br  0.75037870  0.26182037  0.38592409    -0.01200
C753        C  0.52495159  0.13381685  0.75099166    -0.02400
C754        C  0.50492011  0.15095906  0.77511570     0.07300
C755        C  0.48624906  0.17229963  0.75271617    -0.02500
C756        C  0.48648267  0.17446986  0.70583654    -0.02500
C757        C  0.50506582  0.15480366  0.68172973     0.07500
C758        C  0.52485848  0.13542832  0.70443102    -0.02700
Br759      Br  0.55168420  0.11024801  0.67178454    -0.01200
Br760      Br  0.55268351  0.10791805  0.78173626    -0.01300
Br761      Br  0.45985623  0.20175397  0.67474777    -0.01300
Br762      Br  0.45877112  0.19578159  0.78571481    -0.01200
C763        C  0.47995955  0.98327800  0.49418219    -0.02400
C764        C  0.50152851  0.97297948  0.46707395     0.07300
C765        C  0.52195711  0.99629543  0.45527227    -0.02500
C766        C  0.52095533  0.02993099  0.47078570    -0.02500
C767        C  0.49920902  0.04041495  0.49742810     0.07500
C768        C  0.47863156  0.01711984  0.50892225    -0.02700
Br769      Br  0.44791179  0.03187133  0.54306303    -0.01200
Br770      Br  0.45171244  0.95140559  0.50997897    -0.01300
Br771      Br  0.55047495  0.06070969  0.45817131    -0.01300
Br772      Br  0.55227328  0.98153071  0.42025050    -0.01200
C773        C  0.59661449  0.16600405  0.53134744    -0.02400
C774        C  0.57453445  0.16253372  0.50201597     0.07300
C775        C  0.57878936  0.16125059  0.45570519    -0.02500
C776        C  0.60518555  0.16247220  0.43884402    -0.02500
C777        C  0.62739240  0.16418496  0.46834915     0.07500
C778        C  0.62303447  0.16641751  0.51469243    -0.02700
Br779      Br  0.65304866  0.16647901  0.55623190    -0.01200
Br780      Br  0.59063471  0.16982603  0.59459972    -0.01300
Br781      Br  0.61077215  0.16174015  0.37527092    -0.01300
Br782      Br  0.54872579  0.15447893  0.41549121    -0.01200
C783        C  0.42192443  0.15862803  0.45113110    -0.02400
C784        C  0.42470687  0.16337585  0.49736082     0.07300
C785        C  0.40171669  0.16849290  0.52370432    -0.02500
C786        C  0.37581506  0.16685202  0.50434924    -0.02500
C787        C  0.37281381  0.15910104  0.45865888     0.07500
C788        C  0.39607161  0.15622481  0.43178717    -0.02700
Br789      Br  0.39324722  0.14577902  0.36915044    -0.01200
Br790      Br  0.45355359  0.15187153  0.41475160    -0.01300
Br791      Br  0.34469042  0.17619620  0.54066923    -0.01300
Br792      Br  0.40588478  0.17779848  0.58643458    -0.01200
loop_ 
_geom_bond_atom_site_label_1 
_geom_bond_atom_site_label_2 
_geom_bond_distance 
_geom_bond_site_symmetry_2 
_ccdc_geom_bond_type 
In1           O3   2.225       .  S
In1           O4   2.246       .  S
In1          O12   2.263       .  S
In1           O6   2.197       .  S
In1           O8   2.226       .  S
In1           O9   2.247       .  S
In1          O10   2.240       .  S
In1          O13   2.220       .  S
C2            O8   1.259       .  A
C2           O10   1.260       .  A
C2          C767   1.468       .  S
O3           C11   1.257       .  A
O4           C11   1.261       .  A
C5           O12   1.263       .  A
C5            O6   1.256       .  A
C5          C757   1.468       .  S
C7            O9   1.262       .  A
C7           O13   1.258       .  A
C7          C774   1.469       .  S
C11         C784   1.470       .  S
In14         O16   2.240       .  S
In14         O17   2.264       .  S
In14         O25   2.271       .  S
In14         O19   2.226       .  S
In14         O21   2.243       .  S
In14         O22   2.262       .  S
In14         O23   2.250       .  S
In14         O26   2.241       .  S
C15          O21   1.259       .  A
C15          O23   1.260       .  A
C15         C734   1.480       .  S
O16          C24   1.257       .  A
O17          C24   1.261       .  A
C18          O25   1.262       .  A
C18          O19   1.257       .  A
C18         C714   1.479       .  S
C20          O22   1.262       .  A
C20          O26   1.259       .  A
C20         C724   1.485       .  S
C24         C747   1.478       .  S
In27         O29   2.241       .  S
In27         O30   2.264       .  S
In27         O38   2.255       .  S
In27         O32   2.235       .  S
In27         O34   2.239       .  S
In27         O35   2.256       .  S
In27         O36   2.226       .  S
In27         O39   2.231       .  S
C28          O34   1.264       .  A
C28          O36   1.259       .  A
C28         C777   1.472       .  S
O29          C37   1.256       .  A
O30          C37   1.259       .  A
C31          O38   1.260       .  A
C31          O32   1.259       .  A
C31         C694   1.479       .  S
C33          O35   1.262       .  A
C33          O39   1.259       .  A
C33         C744   1.483       .  S
C37         C704   1.480       .  S
In40         O42   2.238       .  S
In40         O43   2.250       .  S
In40         O51   2.255       .  S
In40         O45   2.218   1_655  S
In40         O47   2.234       .  S
In40         O48   2.248   1_655  S
In40         O49   2.230   1_655  S
In40         O52   2.212   1_655  S
C41          O47   1.260       .  A
C41          O49   1.258   1_655  A
C41         C677   1.463       .  S
O42          C50   1.258       .  A
O43          C50   1.260       .  A
C44          O51   1.264   1_455  A
C44          O45   1.258       .  A
C44         C664   1.478       .  S
C46          O48   1.265       .  A
C46          O52   1.260       .  A
C46         C687   1.468       .  S
C50         C737   1.474       .  S
In53         O55   2.246       .  S
In53         O56   2.269       .  S
In53         O64   2.277       .  S
In53         O58   2.224       .  S
In53         O60   2.249       .  S
In53         O61   2.274       .  S
In53         O62   2.243       .  S
In53         O65   2.247       .  S
C54          O60   1.258       .  A
C54          O62   1.258       .  A
C54         C684   1.482       .  S
O55          C63   1.261       .  A
O56          C63   1.264       .  A
C57          O64   1.264       .  A
C57          O58   1.256       .  A
C57         C634   1.479       .  S
C59          O61   1.261       .  A
C59          O65   1.257       .  A
C59         C654   1.490       .  S
C63         C647   1.491       .  S
In66         O68   2.247       .  S
In66         O69   2.259       .  S
In66         O77   2.272       .  S
In66         O71   2.234       .  S
In66         O73   2.244       .  S
In66         O74   2.268       .  S
In66         O75   2.246       .  S
In66         O78   2.247       .  S
C67          O73   1.258       .  A
C67          O75   1.259       .  A
C67         C787   1.483       .  S
O68          C76   1.257       .  A
O69          C76   1.261       .  A
C70          O77   1.263       .  A
C70          O71   1.258       .  A
C70         C614   1.486       .  S
C72          O74   1.264       .  A
C72          O78   1.261       .  A
C72         C624   1.486       .  S
C76         C657   1.482       .  S
In79         O81   2.200       .  S
In79         O82   2.254       .  S
In79         O90   2.261       .  S
In79         O84   2.208       .  S
In79         O86   2.230       .  S
In79         O87   2.257       .  S
In79         O88   2.230       .  S
In79         O91   2.220       .  S
C80          O86   1.261       .  A
C80          O88   1.260       .  A
C80         C764   1.466       .  S
O81          C89   1.258       .  A
O82          C89   1.266       .  A
C83          O90   1.263       .  A
C83          O84   1.259       .  A
C83         C584   1.472       .  S
C85          O87   1.263       .  A
C85          O91   1.257       .  A
C85         C604   1.471       .  S
C89         C594   1.476       .  S
In92         O94   2.238       .  S
In92         O95   2.252       .  S
In92        O103   2.269       .  S
In92         O97   2.225       .  S
In92         O99   2.242       .  S
In92        O100   2.277       .  S
In92        O101   2.237       .  S
In92        O104   2.239       .  S
C93          O99   1.260       .  A
C93         O101   1.259       .  A
C93         C564   1.481       .  S
O94         C102   1.260       .  A
O95         C102   1.264       .  A
C96         O103   1.263       .  A
C96          O97   1.257       .  A
C96         C554   1.476       .  S
C98         O100   1.262       .  A
C98         O104   1.257       .  A
C98         C727   1.488       .  S
C102        C577   1.481       .  S
In105       O107   2.244       .  S
In105       O108   2.261       .  S
In105       O116   2.269       .  S
In105       O110   2.226       .  S
In105       O112   2.228       .  S
In105       O113   2.257       .  S
In105       O114   2.248       .  S
In105       O117   2.238       .  S
C106        O112   1.258       .  A
C106        O114   1.262       .  A
C106        C607   1.473       .  S
O107        C115   1.260       .  A
O108        C115   1.262       .  A
C109        O116   1.262       .  A
C109        O110   1.256       .  A
C109        C547   1.484       .  S
C111        O113   1.261       .  A
C111        O117   1.257       .  A
C111        C574   1.482       .  S
C115        C707   1.480       .  S
In118       O120   2.194       .  S
In118       O121   2.264       .  S
In118       O129   2.259   1_655  S
In118       O123   2.198       .  S
In118       O125   2.227   1_655  S
In118       O126   2.258   1_655  S
In118       O127   2.219       .  S
In118       O130   2.232   1_655  S
C119        O125   1.261       .  A
C119        O127   1.260   1_455  A
C119        C674   1.461   1_455  S
O120        C128   1.256       .  A
O121        C128   1.267       .  A
C122        O129   1.265   1_655  A
C122        O123   1.258       .  A
C122        C524   1.471       .  S
C124        O126   1.263       .  A
C124        O130   1.258       .  A
C124        C534   1.477       .  S
C128        C567   1.475       .  S
In131       O133   2.247       .  S
In131       O134   2.279       .  S
In131       O142   2.256       .  S
In131       O136   2.242       .  S
In131       O138   2.246       .  S
In131       O139   2.251       .  S
In131       O140   2.230       .  S
In131       O143   2.290       .  S
C132        O138   1.264       .  A
C132        O140   1.261       .  A
C132        C597   1.474       .  S
O133        C141   1.257       .  A
O134        C141   1.263       .  A
C135        O142   1.261       .  A
C135        O136   1.260       .  A
C135        C504   1.483       .  S
C137        O139   1.254       .  A
C137        O143   1.260       .  A
C137        C627   1.488       .  S
C141        C514   1.493       .  S
In144       O146   2.257       .  S
In144       O147   2.276       .  S
In144       O155   2.286       .  S
In144       O149   2.225       .  S
In144       O151   2.242       .  S
In144       O152   2.274       .  S
In144       O153   2.251       .  S
In144       O156   2.254       .  S
C145        O151   1.258       .  A
C145        O153   1.260       .  A
C145        C537   1.480       .  S
O146        C154   1.260       .  A
O147        C154   1.262       .  A
C148        O155   1.264       .  A
C148        O149   1.256       .  A
C148        C494   1.488       .  S
C150        O152   1.262       .  A
C150        O156   1.257       .  A
C150        C517   1.485       .  S
C154        C644   1.496       .  S
In157       O159   2.216       .  S
In157       O160   2.252       .  S
In157       O168   2.257       .  S
In157       O162   2.216       .  S
In157       O164   2.237       .  S
In157       O165   2.245       .  S
In157       O166   2.226       .  S
In157       O169   2.215       .  S
C158        O164   1.263       .  A
C158        O166   1.259       .  A
C158        C464   1.469       .  S
O159        C167   1.258       .  A
O160        C167   1.263       .  A
C161        O168   1.263       .  A
C161        O162   1.260       .  A
C161        C587   1.471       .  S
C163        O165   1.265       .  A
C163        O169   1.259       .  A
C163        C487   1.477       .  S
C167        C477   1.469       .  S
In170       O172   2.240       .  S
In170       O173   2.259       .  S
In170       O181   2.259       .  S
In170       O175   2.227       .  S
In170       O177   2.250       .  S
In170       O178   2.259       .  S
In170       O179   2.235       .  S
In170       O182   2.234       .  S
C171        O177   1.258       .  A
C171        O179   1.259       .  A
C171        C444   1.478       .  S
O172        C180   1.260       .  A
O173        C180   1.263       .  A
C174        O181   1.263       .  A
C174        O175   1.259       .  A
C174        C557   1.482       .  S
C176        O178   1.260       .  A
C176        O182   1.257       .  A
C176        C454   1.478       .  S
C180        C437   1.481       .  S
In183       O185   2.246       .  S
In183       O186   2.245       .  S
In183       O194   2.254       .  S
In183       O188   2.226       .  S
In183       O190   2.247       .  S
In183       O191   2.258       .  S
In183       O192   2.243       .  S
In183       O195   2.236       .  S
C184        O190   1.257       .  A
C184        O192   1.259       .  A
C184        C474   1.475       .  S
O185        C193   1.258       .  A
O186        C193   1.259       .  A
C187        O194   1.264       .  A
C187        O188   1.259       .  A
C187        C544   1.481       .  S
C189        O191   1.262       .  A
C189        O195   1.261       .  A
C189        C424   1.478       .  S
C193        C457   1.476       .  S
In196       O198   2.217   1_655  S
In196       O199   2.267   1_655  S
In196       O207   2.259       .  S
In196       O201   2.209       .  S
In196       O203   2.220       .  S
In196       O204   2.256       .  S
In196       O205   2.238       .  S
In196       O208   2.229       .  S
C197        O203   1.259       .  A
C197        O205   1.261       .  A
C197        C404   1.465       .  S
O198        C206   1.256       .  A
O199        C206   1.264       .  A
C200        O207   1.263       .  A
C200        O201   1.256       .  A
C200        C527   1.471       .  S
C202        O204   1.261       .  A
C202        O208   1.258       .  A
C202        C447   1.477       .  S
C206        C414   1.477       .  S
In209       O211   2.234       .  S
In209       O212   2.255       .  S
In209       O220   2.271       .  S
In209       O214   2.232       .  S
In209       O216   2.237       .  S
In209       O217   2.271   1_554  S
In209       O218   2.242   1_554  S
In209       O221   2.243       .  S
C210        O216   1.260       .  A
C210        O218   1.259   1_554  A
C210        C417   1.482   1_554  S
O211        C219   1.260       .  A
O212        C219   1.264       .  A
C213        O220   1.262       .  A
C213        O214   1.258       .  A
C213        C497   1.481       .  S
C215        O217   1.261   1_554  A
C215        O221   1.257       .  A
C215        C384   1.489   1_554  S
C219        C394   1.483   1_554  S
In222       O224   2.238       .  S
In222       O225   2.274       .  S
In222       O233   2.257       .  S
In222       O227   2.228       .  S
In222       O229   2.245       .  S
In222       O230   2.254       .  S
In222       O231   2.237       .  S
In222       O234   2.230       .  S
C223        O229   1.260       .  A
C223        O231   1.257       .  A
C223        C484   1.482       .  S
O224        C232   1.257       .  A
O225        C232   1.262       .  A
C226        O233   1.263       .  A
C226        O227   1.260       .  A
C226        C507   1.478       .  S
C228        O230   1.266       .  A
C228        O234   1.260       .  A
C228        C397   1.483       .  S
C232        C374   1.486       .  S
In235       O237   2.221       .  S
In235       O238   2.253       .  S
In235       O246   2.245       .  S
In235       O240   2.203       .  S
In235       O242   2.237       .  S
In235       O243   2.257       .  S
In235       O244   2.225       .  S
In235       O247   2.204       .  S
C236        O242   1.263       .  A
C236        O244   1.260       .  A
C236        C467   1.469       .  S
O237        C245   1.257       .  A
O238        C245   1.265       .  A
C239        O246   1.264       .  A
C239        O240   1.262       .  A
C239        C754   1.469       .  S
C241        O243   1.266       .  A
C241        O247   1.257       .  A
C241        C364   1.479       .  S
C245        C354   1.484       .  S
In248       O250   2.247       .  S
In248       O251   2.255       .  S
In248       O259   2.274       .  S
In248       O253   2.233       .  S
In248       O255   2.238       .  S
In248       O256   2.262       .  S
In248       O257   2.247       .  S
In248       O260   2.233       .  S
C249        O255   1.259       .  A
C249        O257   1.259       .  A
C249        C334   1.479       .  S
O250        C258   1.261       .  A
O251        C258   1.261       .  A
C252        O259   1.262       .  A
C252        O253   1.258       .  A
C252        C717   1.478       .  S
C254        O256   1.262       .  A
C254        O260   1.256       .  A
C254        C344   1.480       .  S
C258        C434   1.485       .  S
In261       O263   2.242       .  S
In261       O264   2.250       .  S
In261       O272   2.261       .  S
In261       O266   2.229       .  S
In261       O268   2.245       .  S
In261       O269   2.253       .  S
In261       O270   2.236   1_554  S
In261       O273   2.244       .  S
C262        O268   1.261       .  A
C262        O270   1.261   1_554  A
C262        C357   1.474   1_554  S
O263        C271   1.258       .  A
O264        C271   1.261       .  A
C265        O272   1.260       .  A
C265        O266   1.258       .  A
C265        C697   1.480       .  S
C267        O269   1.261       .  A
C267        O273   1.260       .  A
C267        C427   1.481       .  S
C271        C347   1.480       .  S
In274       O276   2.226   1_655  S
In274       O277   2.262   1_655  S
In274       O285   2.261   1_655  S
In274       O279   2.208   1_655  S
In274       O281   2.236       .  S
In274       O282   2.253       .  S
In274       O283   2.234       .  S
In274       O286   2.234       .  S
C275        O281   1.259       .  A
C275        O283   1.260       .  A
C275        C407   1.470       .  S
O276        C284   1.258       .  A
O277        C284   1.263       .  A
C278        O285   1.264       .  A
C278        O279   1.257       .  A
C278        C667   1.474       .  S
C280        O282   1.261       .  A
C280        O286   1.258       .  A
C280        C337   1.479       .  S
C284        C324   1.476       .  S
In287       O289   2.236       .  S
In287       O290   2.278   1_554  S
In287       O298   2.268       .  S
In287       O292   2.233       .  S
In287       O294   2.234       .  S
In287       O295   2.255       .  S
In287       O296   2.245   1_554  S
In287       O299   2.237       .  S
C288        O294   1.261   1_556  A
C288        O296   1.260       .  A
C288        C367   1.484       .  S
O289        C297   1.257       .  A
O290        C297   1.263   1_556  A
C291        O298   1.262       .  A
C291        O292   1.259       .  A
C291        C617   1.479       .  S
C293        O295   1.265       .  A
C293        O299   1.260       .  A
C293        C314   1.482   1_554  S
C297        C377   1.488   1_554  S
In300       O302   2.235       .  S
In300       O303   2.257       .  S
In300       O311   2.269       .  S
In300       O305   2.230       .  S
In300       O307   2.251       .  S
In300       O308   2.266       .  S
In300       O309   2.235       .  S
In300       O312   2.240       .  S
C301        O307   1.261       .  A
C301        O309   1.257       .  A
C301        C327   1.488       .  S
O302        C310   1.261       .  A
O303        C310   1.265       .  A
C304        O311   1.262       .  A
C304        O305   1.259       .  A
C304        C637   1.485       .  S
C306        O308   1.262       .  A
C306        O312   1.257       .  A
C306        C387   1.482       .  S
C310        C317   1.481       .  S
C313        C314   1.409   1_554  A
C313        C318   1.409   1_554  A
C313       Br320   1.931       .  S
C314        C315   1.415       .  A
C315        C316   1.410       .  A
C315       Br322   1.933       .  S
C316        C317   1.409       .  A
C316       Br321   1.930       .  S
C317        C318   1.413       .  A
C318       Br319   1.932   1_556  S
C323        C324   1.409   1_556  A
C323        C328   1.410       .  A
C323       Br330   1.932       .  S
C324        C325   1.407       .  A
C325        C326   1.406       .  A
C325       Br332   1.932       .  S
C326        C327   1.418   1_554  A
C326       Br331   1.935       .  S
C327        C328   1.417       .  A
C328       Br329   1.933       .  S
C333        C334   1.413   1_554  A
C333        C338   1.408       .  A
C333       Br340   1.933       .  S
C334        C335   1.412       .  A
C335        C336   1.407       .  A
C335       Br342   1.935       .  S
C336        C337   1.414   1_556  A
C336       Br341   1.934       .  S
C337        C338   1.411       .  A
C338       Br339   1.932       .  S
C343        C344   1.412   1_554  A
C343        C348   1.409       .  A
C343       Br350   1.933       .  S
C344        C345   1.412       .  A
C345        C346   1.407       .  A
C345       Br352   1.934       .  S
C346        C347   1.412   1_556  A
C346       Br351   1.935       .  S
C347        C348   1.413       .  A
C348       Br349   1.933       .  S
C353        C354   1.414       .  A
C353        C358   1.410   1_556  A
C353       Br360   1.932       .  S
C354        C355   1.420       .  A
C355        C356   1.406       .  A
C355       Br362   1.938       .  S
C356        C357   1.407       .  A
C356       Br361   1.935       .  S
C357        C358   1.409   1_556  A
C358       Br359   1.931       .  S
C363        C364   1.410       .  A
C363        C368   1.407   1_556  A
C363       Br370   1.932   1_556  S
C364        C365   1.413       .  A
C365        C366   1.407       .  A
C365       Br372   1.937       .  S
C366        C367   1.415       .  A
C366       Br371   1.934       .  S
C367        C368   1.414   1_556  A
C368       Br369   1.933       .  S
C373        C374   1.413       .  A
C373        C378   1.408   1_565  A
C373       Br380   1.937       .  S
C374        C375   1.412       .  A
C375        C376   1.414   1_565  A
C375       Br382   1.930       .  S
C376        C377   1.413       .  A
C376       Br381   1.929       .  S
C377        C378   1.414       .  A
C378       Br379   1.935       .  S
C383        C384   1.416       .  A
C383        C388   1.409       .  A
C383       Br390   1.936   1_556  S
C384        C385   1.415       .  A
C385        C386   1.412       .  A
C385       Br392   1.929       .  S
C386        C387   1.409       .  A
C386       Br391   1.930       .  S
C387        C388   1.411       .  A
C388       Br389   1.936       .  S
C393        C394   1.412   1_554  A
C393        C398   1.409       .  A
C393       Br400   1.933       .  S
C394        C395   1.414       .  A
C395        C396   1.410       .  A
C395       Br402   1.934       .  S
C396        C397   1.413       .  A
C396       Br401   1.932       .  S
C397        C398   1.413   1_556  A
C398       Br399   1.934       .  S
C403        C404   1.409   1_455  A
C403        C408   1.403       .  A
C403       Br410   1.933       .  S
C404        C405   1.406   1_556  A
C405        C406   1.406       .  A
C405       Br412   1.933       .  S
C406        C407   1.412       .  A
C406       Br411   1.930       .  S
C407        C408   1.410   1_654  A
C408       Br409   1.934       .  S
C413        C414   1.409   1_554  A
C413        C418   1.408       .  A
C413       Br420   1.932       .  S
C414        C415   1.411       .  A
C415        C416   1.406       .  A
C415       Br422   1.930       .  S
C416        C417   1.414       .  A
C416       Br421   1.936       .  S
C417        C418   1.415   1_556  A
C418       Br419   1.934       .  S
C423        C424   1.409   1_545  A
C423        C428   1.408       .  A
C423       Br430   1.932       .  S
C424        C425   1.411   1_556  A
C425        C426   1.410   1_565  A
C425       Br432   1.931       .  S
C426        C427   1.411       .  A
C426       Br431   1.931       .  S
C427        C428   1.412   1_554  A
C428       Br429   1.932       .  S
C433        C434   1.413       .  A
C433        C438   1.410       .  A
C433       Br440   1.930       .  S
C434        C435   1.415   1_556  A
C435        C436   1.410       .  A
C435       Br442   1.934       .  S
C436        C437   1.409       .  A
C436       Br441   1.930       .  S
C437        C438   1.410   1_554  A
C438       Br439   1.931       .  S
C443        C444   1.413       .  A
C443        C448   1.409       .  A
C443       Br450   1.933       .  S
C444        C445   1.409   1_554  A
C445        C446   1.405       .  A
C445       Br452   1.933       .  S
C446        C447   1.410       .  A
C446       Br451   1.930       .  S
C447        C448   1.413   1_556  A
C448       Br449   1.933       .  S
C453        C454   1.411   1_556  A
C453        C458   1.409       .  A
C453       Br460   1.932       .  S
C454        C455   1.414       .  A
C455        C456   1.406   1_554  A
C455       Br462   1.935       .  S
C456        C457   1.408       .  A
C456       Br461   1.932       .  S
C457        C458   1.412       .  A
C458       Br459   1.933       .  S
C463        C464   1.411   1_556  A
C463        C468   1.406   1_565  A
C463       Br470   1.934       .  S
C464        C465   1.408       .  A
C465        C466   1.404   1_564  A
C465       Br472   1.931       .  S
C466        C467   1.410       .  A
C466       Br471   1.932   1_556  S
C467        C468   1.410       .  A
C468       Br469   1.933       .  S
C473        C474   1.412       .  A
C473        C478   1.407       .  A
C473       Br480   1.932       .  S
C474        C475   1.411   1_556  A
C475        C476   1.405       .  A
C475       Br482   1.930       .  S
C476        C477   1.406       .  A
C476       Br481   1.929       .  S
C477        C478   1.410   1_554  A
C478       Br479   1.932       .  S
C483        C484   1.415   1_554  A
C483        C488   1.407       .  A
C483       Br490   1.935       .  S
C484        C485   1.414       .  A
C485        C486   1.408       .  A
C485       Br492   1.935       .  S
C486        C487   1.412   1_556  A
C486       Br491   1.935       .  S
C487        C488   1.411       .  A
C488       Br489   1.935       .  S
C493        C494   1.415       .  A
C493        C498   1.415       .  A
C493       Br500   1.929       .  S
C494        C495   1.414       .  A
C495        C496   1.406       .  A
C495       Br502   1.935       .  S
C496        C497   1.410       .  A
C496       Br501   1.935       .  S
C497        C498   1.411       .  A
C498       Br499   1.930       .  S
C503        C504   1.412       .  A
C503        C508   1.407       .  A
C503       Br510   1.933       .  S
C504        C505   1.414       .  A
C505        C506   1.411       .  A
C505       Br512   1.930       .  S
C506        C507   1.409       .  A
C506       Br511   1.930       .  S
C507        C508   1.411       .  A
C508       Br509   1.934       .  S
C513        C514   1.415       .  A
C513        C518   1.412       .  A
C513       Br520   1.931       .  S
C514        C515   1.416       .  A
C515        C516   1.413       .  A
C515       Br522   1.931       .  S
C516        C517   1.410       .  A
C516       Br521   1.932       .  S
C517        C518   1.410       .  A
C518       Br519   1.933       .  S
C523        C524   1.408   1_455  A
C523        C528   1.400       .  A
C523       Br530   1.936       .  S
C524        C525   1.411       .  A
C525        C526   1.410       .  A
C525       Br532   1.929       .  S
C526        C527   1.410       .  A
C526       Br531   1.929       .  S
C527        C528   1.411   1_655  A
C528       Br529   1.934       .  S
C533        C534   1.412       .  A
C533        C538   1.408       .  A
C533       Br540   1.932       .  S
C534        C535   1.408       .  A
C535        C536   1.408       .  A
C535       Br542   1.928       .  S
C536        C537   1.412       .  A
C536       Br541   1.931       .  S
C537        C538   1.413       .  A
C538       Br539   1.935       .  S
C543        C544   1.412       .  A
C543        C548   1.411       .  A
C543       Br550   1.933       .  S
C544        C545   1.411       .  A
C545        C546   1.406       .  A
C545       Br552   1.934       .  S
C546        C547   1.414       .  A
C546       Br551   1.935       .  S
C547        C548   1.414       .  A
C548       Br549   1.931       .  S
C553        C554   1.408       .  A
C553        C558   1.411       .  A
C553       Br560   1.929       .  S
C554        C555   1.409       .  A
C555        C556   1.406       .  A
C555       Br562   1.933       .  S
C556        C557   1.412       .  A
C556       Br561   1.932       .  S
C557        C558   1.415       .  A
C558       Br559   1.931       .  S
C563        C564   1.414       .  A
C563        C568   1.405       .  A
C563       Br570   1.936       .  S
C564        C565   1.416       .  A
C565        C566   1.409       .  A
C565       Br572   1.934       .  S
C566        C567   1.409       .  A
C566       Br571   1.932       .  S
C567        C568   1.411       .  A
C568       Br569   1.936       .  S
C573        C574   1.414       .  A
C573        C578   1.409       .  A
C573       Br580   1.934       .  S
C574        C575   1.413       .  A
C575        C576   1.409       .  A
C575       Br582   1.934       .  S
C576        C577   1.412       .  A
C576       Br581   1.934       .  S
C577        C578   1.411       .  A
C578       Br579   1.930       .  S
C583        C584   1.408       .  A
C583        C588   1.402       .  A
C583       Br590   1.932       .  S
C584        C585   1.411       .  A
C585        C586   1.410       .  A
C585       Br592   1.928       .  S
C586        C587   1.409       .  A
C586       Br591   1.929       .  S
C587        C588   1.408       .  A
C588       Br589   1.931       .  S
C593        C594   1.413       .  A
C593        C598   1.409       .  A
C593       Br600   1.932       .  S
C594        C595   1.412       .  A
C595        C596   1.403       .  A
C595       Br602   1.935       .  S
C596        C597   1.409       .  A
C596       Br601   1.932       .  S
C597        C598   1.409       .  A
C598       Br599   1.929       .  S
C603        C604   1.408       .  A
C603        C608   1.407       .  A
C603       Br610   1.930       .  S
C604        C605   1.410       .  A
C605        C606   1.406       .  A
C605       Br612   1.932       .  S
C606        C607   1.411       .  A
C606       Br611   1.935       .  S
C607        C608   1.411       .  A
C608       Br609   1.931       .  S
C613        C614   1.413       .  A
C613        C618   1.407       .  A
C613       Br620   1.932       .  S
C614        C615   1.415       .  A
C615        C616   1.413       .  A
C615       Br622   1.931       .  S
C616        C617   1.410       .  A
C616       Br621   1.930       .  S
C617        C618   1.409       .  A
C618       Br619   1.934       .  S
C623        C624   1.413       .  A
C623        C628   1.414       .  A
C623       Br630   1.932       .  S
C624        C625   1.410       .  A
C625        C626   1.410   1_545  A
C625       Br632   1.929       .  S
C626        C627   1.412       .  A
C626       Br631   1.932       .  S
C627        C628   1.414   1_565  A
C628       Br629   1.932   1_545  S
C633        C634   1.409       .  A
C633        C638   1.414       .  A
C633       Br640   1.929       .  S
C634        C635   1.409       .  A
C635        C636   1.405       .  A
C635       Br642   1.933       .  S
C636        C637   1.413       .  A
C636       Br641   1.934       .  S
C637        C638   1.416       .  A
C638       Br639   1.931       .  S
C643        C644   1.416       .  A
C643        C648   1.412       .  A
C643       Br650   1.934       .  S
C644        C645   1.416       .  A
C645        C646   1.416       .  A
C645       Br652   1.930       .  S
C646        C647   1.412       .  A
C646       Br651   1.930       .  S
C647        C648   1.415       .  A
C648       Br649   1.938       .  S
C653        C654   1.413       .  A
C653        C658   1.412       .  A
C653       Br660   1.930       .  S
C654        C655   1.417       .  A
C655        C656   1.410       .  A
C655       Br662   1.932       .  S
C656        C657   1.408       .  A
C656       Br661   1.932       .  S
C657        C658   1.414       .  A
C658       Br659   1.934       .  S
C663        C664   1.413   1_655  A
C663        C668   1.409       .  A
C663       Br670   1.930       .  S
C664        C665   1.413       .  A
C665        C666   1.404       .  A
C665       Br672   1.936       .  S
C666        C667   1.411       .  A
C666       Br671   1.936       .  S
C667        C668   1.410   1_455  A
C668       Br669   1.931       .  S
C673        C674   1.408       .  A
C673        C678   1.403       .  A
C673       Br680   1.934       .  S
C674        C675   1.407   1_655  A
C675        C676   1.403       .  A
C675       Br682   1.932       .  S
C676        C677   1.409   1_455  A
C676       Br681   1.933       .  S
C677        C678   1.408       .  A
C678       Br679   1.931       .  S
C683        C684   1.419       .  A
C683        C688   1.408       .  A
C683       Br690   1.934       .  S
C684        C685   1.416       .  A
C685        C686   1.406       .  A
C685       Br692   1.934       .  S
C686        C687   1.405       .  A
C686       Br691   1.932       .  S
C687        C688   1.406       .  A
C688       Br689   1.934       .  S
C693        C694   1.412       .  A
C693        C698   1.411       .  A
C693       Br700   1.932       .  S
C694        C695   1.411       .  A
C695        C696   1.405       .  A
C695       Br702   1.934       .  S
C696        C697   1.411       .  A
C696       Br701   1.935       .  S
C697        C698   1.413       .  A
C698       Br699   1.931       .  S
C703        C704   1.411       .  A
C703        C708   1.408       .  A
C703       Br710   1.933       .  S
C704        C705   1.413       .  A
C705        C706   1.410   1_545  A
C705       Br712   1.934       .  S
C706        C707   1.411       .  A
C706       Br711   1.931       .  S
C707        C708   1.410   1_565  A
C708       Br709   1.929       .  S
C713        C714   1.412       .  A
C713        C718   1.413       .  A
C713       Br720   1.929       .  S
C714        C715   1.411       .  A
C715        C716   1.405       .  A
C715       Br722   1.933       .  S
C716        C717   1.409       .  A
C716       Br721   1.931       .  S
C717        C718   1.410       .  A
C718       Br719   1.926       .  S
C723        C724   1.412       .  A
C723        C728   1.413       .  A
C723       Br730   1.931       .  S
C724        C725   1.413       .  A
C725        C726   1.408       .  A
C725       Br732   1.937       .  S
C726        C727   1.415       .  A
C726       Br731   1.937       .  S
C727        C728   1.414       .  A
C728       Br729   1.930       .  S
C733        C734   1.413       .  A
C733        C738   1.408       .  A
C733       Br740   1.930       .  S
C734        C735   1.414       .  A
C735        C736   1.408       .  A
C735       Br742   1.934       .  S
C736        C737   1.410       .  A
C736       Br741   1.934       .  S
C737        C738   1.406       .  A
C738       Br739   1.929       .  S
C743        C744   1.415       .  A
C743        C748   1.409       .  A
C743       Br750   1.934       .  S
C744        C745   1.413       .  A
C745        C746   1.408       .  A
C745       Br752   1.933       .  S
C746        C747   1.410       .  A
C746       Br751   1.931       .  S
C747        C748   1.410       .  A
C748       Br749   1.932       .  S
C753        C754   1.408       .  A
C753        C758   1.399       .  A
C753       Br760   1.934       .  S
C754        C755   1.411       .  A
C755        C756   1.410       .  A
C755       Br762   1.929       .  S
C756        C757   1.410       .  A
C756       Br761   1.929       .  S
C757        C758   1.409       .  A
C758       Br759   1.934       .  S
C763        C764   1.409       .  A
C763        C768   1.404   1_565  A
C763       Br770   1.933       .  S
C764        C765   1.408       .  A
C765        C766   1.404   1_565  A
C765       Br772   1.932       .  S
C766        C767   1.410       .  A
C766       Br771   1.932       .  S
C767        C768   1.410       .  A
C768       Br769   1.933       .  S
C773        C774   1.407       .  A
C773        C778   1.404       .  A
C773       Br780   1.932       .  S
C774        C775   1.409       .  A
C775        C776   1.406       .  A
C775       Br782   1.931       .  S
C776        C777   1.410       .  A
C776       Br781   1.932       .  S
C777        C778   1.413       .  A
C778       Br779   1.935       .  S
C783        C784   1.409       .  A
C783        C788   1.406       .  A
C783       Br790   1.936       .  S
C784        C785   1.407       .  A
C785        C786   1.407       .  A
C785       Br792   1.932       .  S
C786        C787   1.415       .  A
C786       Br791   1.932       .  S
C787        C788   1.416       .  A
C788       Br789   1.933       .  S
