geometry optimzed in LAMMPS
_audit_creation_date              2020-11-30 
_audit_creation_method            'lammps2cif' 
_symmetry_space_group_name_H-M    'P1' 
_symmetry_Int_Tables_number       1 
_symmetry_cell_setting            triclinic 
loop_ 
_symmetry_equiv_pos_as_xyz 
  x,y,z 
_cell_length_a                    68.26505336 
_cell_length_b                    68.02906143902658 
_cell_length_c                    69.31198253454652 
_cell_angle_alpha                 89.4590748133717 
_cell_angle_beta                  89.86960847515749 
_cell_angle_gamma                 89.10777725249375 
loop_ 
_atom_site_label 
_atom_site_type_symbol 
_atom_site_fract_x 
_atom_site_fract_y 
_atom_site_fract_z 
_atom_site_charge 
Zr1        Zr  0.01933002  0.00505898  0.95760754     2.17500
O2          O  0.02193795  0.99627381  0.92362584    -0.50900
O3          O  0.04915672  0.02374508  0.95055050    -0.74100
O4          O  0.00120033  0.02734036  0.93573114    -0.80900
O5          O  0.03622446  0.95331265  0.97351978    -0.82600
O6          O  0.98241470  0.04882582  0.95281443    -0.78200
O7          O  0.03235975  0.97281533  0.94699518    -0.89900
O8          O  0.05980246  0.03705066  0.97832651    -0.75800
O9          O  0.01909990  0.03380219  0.97701114    -0.85300
O10         O  0.03995438  0.99793472  0.98468479    -0.85000
O11         O  0.98540908  0.01009632  0.96687493    -0.71800
O12         O  0.00461305  0.97778194  0.97423176    -0.83900
Zr13       Zr  0.99102311  0.00568977  0.03051351     2.26400
Zr14       Zr  0.98564842  0.03906884  0.98634657     2.06300
Zr15       Zr  0.02496511  0.97125663  0.00160184     2.10000
Zr16       Zr  0.03905936  0.02643613  0.00436879     1.78800
O17         O  0.01846566  0.93615242  0.00236535    -0.92700
O18         O  0.04272507  0.06179429  0.00807946    -0.40500
O19         O  0.02478071  0.99966462  0.02177588    -0.77100
O20         O  0.00599417  0.03284567  0.01389146    -0.95800
O21         O  0.97061888  0.01242424  0.00331670    -0.89100
O22         O  0.99169494  0.97660845  0.01148949    -0.92000
C23         C  0.06106334  0.03442115  0.96010394     1.01800
C24         C  0.03724784  0.95638941  0.95525910     1.14700
C25         C  0.98888892  0.04181926  0.93690995     1.05500
O26         O  0.99797545  0.07236485  0.98336860    -0.94100
O27         O  0.97130736  0.05592562  0.01374027    -0.89900
O28         O  0.97514394  0.03673999  0.04045933    -0.83000
C29         C  0.96985203  0.05293291  0.03196992     1.12100
O30         O  0.96030002  0.97201486  0.95323832    -0.96100
Zr31       Zr  0.97145308  0.98341512  0.98446925     1.88900
O32         O  0.96044786  0.98911074  0.03845351    -0.72800
O33         O  0.95162995  0.04831738  0.98000371    -0.52000
O34         O  0.93953846  0.99621538  0.97432169    -0.96700
O35         O  0.97035578  0.94768425  0.98280079    -0.53900
O36         O  0.94925864  0.97573231  0.01075068    -0.73300
C37         C  0.94803084  0.97909731  0.02888801     0.99100
O38         O  0.99393766  0.01728776  0.06357362    -0.62100
O39         O  0.05935112  0.96665442  0.01003555    -0.56900
O40         O  0.00564476  0.98086965  0.05208051    -0.93600
O41         O  0.02430513  0.95953697  0.03466281    -0.92000
O42         O  0.07090562  0.01216746  0.01268567    -0.92400
O43         O  0.04889857  0.03709671  0.03633064    -0.91100
C44         C  0.01676929  0.96550403  0.05054913     1.17900
H45         H  0.05312610  0.99455634  0.98063577     0.33900
H46         H  0.00640591  0.04424682  0.02205687     0.44700
H47         H  0.98707052  0.96537855  0.01870488     0.38200
H48         H  0.97689311  0.01174191  0.95587774     0.34700
H49         H  0.05704253  0.06392976  0.00769386     0.26500
H50         H  0.95209073  0.06201091  0.97506714     0.32400
H51         H  0.93407785  0.00291282  0.98580825     0.38400
H52         H  0.07952017  0.02358539  0.01446192     0.32800
H53         H  0.06090426  0.97397826  0.02220395     0.31700
H54         H  0.03151320  0.92957943  0.00217160     0.33400
H55         H  0.96664765  0.94327407  0.99594125     0.32300
H56         H  0.03780961  0.03353031  0.04483446     0.36300
H57         H  0.98701153  0.00754963  0.07169600     0.29100
H58         H  0.02657262  0.00814566  0.91673461     0.33300
H59         H  0.97150101  0.97430964  0.94443938     0.36200
H60         H  0.06053908  0.95265500  0.01395095     0.28800
H61         H  0.00796014  0.01562628  0.06693885     0.41600
H62         H  0.00779518  0.07182959  0.97284758     0.31700
H63         H  0.03783908  0.06758193  0.99581878     0.39300
H64         H  0.98420229  0.94338974  0.98136819     0.31200
H65         H  0.94780845  0.04041430  0.96873532     0.31200
H66         H  0.00833749  0.99445410  0.91911351     0.31500
C67         C  0.04912115  0.34493911  0.14443147     0.80700
N68         N  0.03779329  0.32955256  0.13950963    -0.77600
C69         C  0.04075694  0.31160407  0.14775666     0.83100
N70         N  0.05513929  0.30920203  0.16114093    -0.77600
C71         C  0.06683018  0.32442293  0.16589936     0.83200
N72         N  0.06374207  0.34230975  0.15747651    -0.79300
C73         C  0.93752011  0.16785474  0.11876659     0.80700
N74         N  0.95147136  0.18197748  0.11792395    -0.77600
C75         C  0.94979205  0.19843439  0.12883035     0.83100
N76         N  0.93406792  0.20069648  0.14061646    -0.77600
C77         C  0.92016348  0.18676992  0.14175786     0.83200
N78         N  0.92191355  0.17026153  0.13089268    -0.79300
C79         C  0.80956577  0.13730695  0.41853879     0.80700
N80         N  0.79570669  0.13679594  0.43275469    -0.77600
C81         C  0.79757336  0.12417188  0.44802865     0.83100
N82         N  0.81363289  0.11216560  0.44899944    -0.77600
C83         C  0.82737447  0.11230565  0.43486435     0.83200
N84         N  0.82531281  0.12490799  0.41970644    -0.79300
C85         C  0.67394829  0.10278000  0.57546225     0.80700
N86         N  0.68565092  0.10401100  0.55962841    -0.77600
C87         C  0.70361635  0.11220370  0.56080396     0.83100
N88         N  0.70980784  0.11922617  0.57800240    -0.77600
C89         C  0.69840625  0.11766544  0.59406922     0.83200
N90         N  0.68046124  0.10950085  0.59263245    -0.79300
Zr91       Zr  0.78333834  0.25101696  0.26348532     2.17500
O92         O  0.81287818  0.25457800  0.28288388    -0.50900
O93         O  0.80847649  0.23501547  0.24359792    -0.74100
O94         O  0.78641794  0.22687509  0.28985307    -0.80900
O95         O  0.78682032  0.30443373  0.24437983    -0.82600
O96         O  0.75946514  0.20770393  0.29060545    -0.78200
O97         O  0.80013823  0.28228430  0.26549160    -0.89900
O98         O  0.79406799  0.22306389  0.21674926    -0.75800
O99         O  0.76656413  0.22436247  0.24920202    -0.85300
O100        O  0.77766335  0.26046514  0.23072374    -0.85000
O101        O  0.75355816  0.24783926  0.28201930    -0.71800
O102        O  0.76375470  0.28061418  0.26444972    -0.83900
Zr103      Zr  0.71056151  0.25950250  0.23543966     2.26400
Zr104      Zr  0.73656733  0.22134732  0.26707866     2.06300
Zr105      Zr  0.75747314  0.28954699  0.23161519     2.10000
Zr106      Zr  0.76041334  0.23412820  0.21665203     1.78800
O107        O  0.74977860  0.32404817  0.23750944    -0.92700
O108        O  0.75934440  0.19883081  0.21098218    -0.40500
O109        O  0.74020783  0.26315618  0.21705997    -0.77100
O110        O  0.73057555  0.22997796  0.23395744    -0.95800
O111        O  0.71652304  0.25051211  0.26822587    -0.89100
O112        O  0.72735252  0.28644861  0.24928426    -0.92000
C113        C  0.80890141  0.22561203  0.22762284     1.01800
C114        C  0.79955008  0.29921910  0.25710399     1.14700
C115        C  0.77639010  0.21259160  0.29678106     1.05500
O116        O  0.74295714  0.18648739  0.26209510    -0.94100
O117        O  0.70596747  0.20704775  0.25616374    -0.89900
O118        O  0.69162271  0.22910032  0.23570812    -0.83000
C119        C  0.69247945  0.21211818  0.24411599     1.12100
O120        O  0.75362356  0.28794170  0.30894242    -0.96100
Zr121      Zr  0.73380858  0.27712945  0.28191641     1.88900
O122        O  0.68618088  0.27747300  0.25469033    -0.72800
O123        O  0.71704170  0.21563143  0.29596898    -0.52000
O124        O  0.72248547  0.26387728  0.31269401    -0.96700
O125        O  0.73296486  0.31280518  0.28519007    -0.53900
O126        O  0.69937191  0.28500359  0.28368460    -0.73300
C127        C  0.68508627  0.28443260  0.27182684     0.99100
O128        O  0.68054214  0.25731793  0.21651422    -0.62100
O129        O  0.77761260  0.29660695  0.20334665    -0.56900
O130        O  0.70983267  0.28113691  0.20691026    -0.93600
O131        O  0.73641861  0.30060642  0.20554949    -0.92000
O132        O  0.77402705  0.24856049  0.18735875    -0.92400
O133        O  0.74206878  0.22509868  0.18804793    -0.91100
C134        C  0.72003191  0.29477274  0.19893665     1.17900
H135        H  0.78980487  0.26296240  0.22403278     0.33900
H136        H  0.72431684  0.21957449  0.22707538     0.44700
H137        H  0.71958390  0.29841380  0.24838837     0.38200
H138        H  0.75608019  0.24512245  0.29547769     0.34700
H139        H  0.76837725  0.19291316  0.22062368     0.26500
H140        H  0.71760809  0.20119721  0.29793424     0.32400
H141        H  0.71056732  0.25646217  0.30953364     0.38400
H142        H  0.78172865  0.23777379  0.18135149     0.32800
H143        H  0.77723265  0.31110638  0.20206416     0.31700
H144        H  0.75648071  0.33126698  0.22699701     0.33400
H145        H  0.74366966  0.31747310  0.27673847     0.32300
H146        H  0.73265129  0.23613361  0.18599434     0.36300
H147        H  0.67499430  0.27084448  0.21572551     0.13900
H148        H  0.81976247  0.24165660  0.28263603     0.33300
H149        H  0.74453597  0.29532733  0.31746862     0.36200
H150        H  0.79125448  0.29346719  0.20722647     0.28800
H151        H  0.68471244  0.25413819  0.20319514     0.41600
H152        H  0.75546674  0.18587624  0.25486502     0.31700
H153        H  0.74619789  0.19473732  0.21534435     0.39300
H154        H  0.72080460  0.31733261  0.27866638     0.31200
H155        H  0.72494401  0.22091558  0.30663995     0.31200
H156        H  0.80835021  0.25617157  0.29637250     0.31500
C157        C  0.85403598  0.64968374  0.54005450     0.80700
N158        N  0.83794305  0.64771197  0.52879726    -0.77600
C159        C  0.82034198  0.65501646  0.53469865     0.83100
N160        N  0.81901181  0.66443840  0.55178640    -0.77600
C161        C  0.83491193  0.66659162  0.56329349     0.83200
N162        N  0.85244523  0.65915600  0.55718866    -0.79300
C163        C  0.67145744  0.64273264  0.43807651     0.80700
N164        N  0.68580865  0.64316894  0.45171336    -0.77600
C165        C  0.70166317  0.65477255  0.44935716     0.83100
N166        N  0.70348804  0.66572177  0.43307843    -0.77600
C167        C  0.68947212  0.66534335  0.41934153     0.83200
N168        N  0.67357226  0.65383935  0.42181833    -0.79300
Zr169      Zr  0.00176834  0.46856749  0.47935256     2.17500
O170        O  0.98536866  0.43693049  0.47843458    -0.50900
O171        O  0.02978504  0.44711138  0.47084643    -0.74100
O172        O  0.98618843  0.46172072  0.44832501    -0.80900
O173        O  0.00298236  0.46684176  0.53490994    -0.82600
O174        O  0.98851780  0.48868744  0.42885074    -0.78200
O175        O  0.99291289  0.45026977  0.50857297    -0.89900
O176        O  0.05623951  0.46638032  0.46598535    -0.75800
O177        O  0.02140380  0.48801120  0.45830224    -0.85300
O178        O  0.02875389  0.47903107  0.49832076    -0.85000
O179        O  0.98059063  0.49548341  0.46902724    -0.71800
O180        O  0.98800106  0.48764433  0.50528753    -0.83900
Zr181      Zr  0.01468979  0.54504934  0.49300565     2.26400
Zr182      Zr  0.00088256  0.51522670  0.44846500     2.06300
Zr183      Zr  0.01511850  0.49847089  0.52390440     2.10000
Zr184      Zr  0.04804695  0.49882616  0.47739037     1.78800
O185        O  0.99586044  0.50400092  0.55302099    -0.92700
O186        O  0.06492939  0.50397959  0.44679302    -0.40500
O187        O  0.03535829  0.51811137  0.50344822    -0.77100
O188        O  0.02830163  0.52615213  0.46680767    -0.95800
O189        O  0.98767035  0.53449071  0.47421838    -0.89100
O190        O  0.99491229  0.52572442  0.51395329    -0.92000
C191        C  0.04772277  0.44978233  0.46586179     1.01800
C192        C  0.99498516  0.45203296  0.52693364     1.14700
C193        C  0.98349748  0.47088205  0.43223102     1.05500
O194        O  0.02115671  0.51511164  0.41951903    -0.94100
O195        O  0.00658732  0.54897282  0.43817747    -0.89900
O196        O  0.01502940  0.56644781  0.46460845    -0.83000
C197        C  0.01169141  0.56491767  0.44643161     1.12100
O198        O  0.94152715  0.49163300  0.49749122    -0.96100
Zr199      Zr  0.96810846  0.51507460  0.49503360     1.88900
O200        O  0.98764622  0.56679479  0.50316527    -0.72800
O201        O  0.97148038  0.52693225  0.43181849    -0.52000
O202        O  0.94304282  0.52480637  0.47166646    -0.96700
O203        O  0.95186427  0.51485884  0.52640797    -0.53900
O204        O  0.95969439  0.54912978  0.50131772    -0.73300
C205        C  0.96892197  0.56509828  0.50417114     0.99100
O206        O  0.03737885  0.57196742  0.48871000    -0.62100
O207        O  0.04290948  0.48379764  0.54109112    -0.56900
O208        O  0.03081740  0.55243380  0.52395701    -0.93600
O209        O  0.03037802  0.52456438  0.54200267    -0.92000
O210        O  0.07283444  0.48602777  0.49959825    -0.92400
O211        O  0.07575625  0.52078476  0.47966208    -0.91100
C212        C  0.03480164  0.54273197  0.53958435     1.17900
H213        H  0.03616838  0.46793819  0.50339435     0.33900
H214        H  0.03648350  0.53439764  0.45886280     0.44700
H215        H  0.99057200  0.53322240  0.52497151     0.38200
H216        H  0.96933783  0.49080112  0.46214746     0.34700
H217        H  0.07718983  0.49607074  0.44786882     0.26500
H218        H  0.97432342  0.52491317  0.41795772     0.32400
H219        H  0.94026206  0.51279639  0.46427150     0.38400
H220        H  0.07159923  0.49443648  0.51113197     0.32800
H221        H  0.04008651  0.48623726  0.55488748     0.31700
H222        H  0.00554449  0.50429239  0.56361946     0.33400
H223        H  0.95562553  0.52724609  0.53269677     0.32300
H224        H  0.07021301  0.53295067  0.48536702     0.36300
H225        H  0.03250984  0.58247286  0.49734221     0.29100
H226        H  0.99131594  0.42966456  0.46751600     0.33300
H227        H  0.92936402  0.49970169  0.49836767     0.36200
H228        H  0.04152595  0.46942363  0.53966055     0.28800
H229        H  0.04994420  0.56722993  0.49428590     0.41600
H230        H  0.02537225  0.50122918  0.41796990     0.31700
H231        H  0.05700804  0.49690543  0.43722393     0.39300
H232        H  0.95884393  0.50444808  0.53385176     0.31200
H233        H  0.96135108  0.51714472  0.43494207     0.31200
H234        H  0.97168834  0.43982817  0.47446691     0.31500
C235        C  0.42707881  0.82396998  0.15007450     0.80700
N236        N  0.42921306  0.84197826  0.14170175    -0.77600
C237        C  0.44426163  0.84514402  0.12922801     0.83100
N238        N  0.45697243  0.83015836  0.12511052    -0.77600
C239        C  0.45514727  0.81216477  0.13356292     0.83200
N240        N  0.44022102  0.80933872  0.14619396    -0.79300
C241        C  0.56965472  0.67644764  0.09722327     0.80700
N242        N  0.58715693  0.67883405  0.10620842    -0.77600
C243        C  0.59059067  0.69559002  0.11614866     0.83100
N244        N  0.57623595  0.70959228  0.11738421    -0.77600
C245        C  0.55879749  0.70739827  0.10831211     0.83200
N246        N  0.55560520  0.69073873  0.09829679    -0.79300
C247        C  0.14056879  0.05702584  0.29362431     0.80700
N248        N  0.13599589  0.04252684  0.28114690    -0.77600
C249        C  0.12448632  0.02745880  0.28686639     0.83100
N250        N  0.11757770  0.02692112  0.30524143    -0.77600
C251        C  0.12162512  0.04157185  0.31773471     0.83200
N252        N  0.13315118  0.05658524  0.31186294    -0.79300
C253        C  0.09868060  0.88324702  0.18658608     0.80700
N254        N  0.10230145  0.89737374  0.19974027    -0.77600
C255        C  0.09502619  0.91585052  0.19731527     0.83100
N256        N  0.08386156  0.92022382  0.18163410    -0.77600
C257        C  0.08017326  0.90626645  0.16826581     0.83200
N258        N  0.08773953  0.88771106  0.17065301    -0.79300
Zr259      Zr  0.28682049  0.75331173  0.26410200     2.17500
O260        O  0.30878213  0.75556625  0.29170794    -0.50900
O261        O  0.31229418  0.76867902  0.24446706    -0.74100
O262        O  0.31004298  0.72537268  0.26673946    -0.80900
O263        O  0.25653230  0.79664349  0.28455546    -0.82600
O264        O  0.29877720  0.70053952  0.24837678    -0.78200
O265        O  0.28626806  0.78110560  0.28609752    -0.89900
O266        O  0.29972846  0.77534453  0.21473136    -0.75800
O267        O  0.28439697  0.74007345  0.23256401    -0.85300
O268        O  0.26938904  0.77731553  0.24510970    -0.85000
O269        O  0.26927061  0.72311330  0.26843814    -0.71800
O270        O  0.25521674  0.75755531  0.27917508    -0.83900
Zr271      Zr  0.21775808  0.73730758  0.23209859     2.26400
Zr272      Zr  0.26666582  0.71021525  0.23651533     2.06300
Zr273      Zr  0.23759134  0.78098306  0.25950344     2.10000
Zr274      Zr  0.26649131  0.76370070  0.21379746     1.78800
O275        O  0.21614173  0.79427053  0.28440907    -0.92700
O276        O  0.28325452  0.74911242  0.18621372    -0.40500
O277        O  0.23463318  0.76778329  0.22782286    -0.77100
O278        O  0.24918205  0.73350121  0.21676280    -0.95800
O279        O  0.23513063  0.71371275  0.25129108    -0.89100
O280        O  0.21997407  0.75116733  0.26337335    -0.92000
C281        C  0.31360577  0.77533438  0.22711180     1.01800
C282        C  0.27382118  0.79431105  0.29156061     1.14700
C283        C  0.31155621  0.70804335  0.25949878     1.05500
O284        O  0.28636013  0.70149058  0.20847856    -0.94100
O285        O  0.24567860  0.69130618  0.21567738    -0.89900
O286        O  0.21660408  0.70765614  0.21292424    -0.83000
C287        C  0.22838193  0.69340602  0.20868966     1.12100
O288        O  0.25563019  0.71937809  0.31180722    -0.96100
Zr289      Zr  0.23743931  0.72765369  0.28249743     1.88900
O290        O  0.19172109  0.72258462  0.25140739    -0.72800
O291        O  0.26484743  0.67682070  0.24934493    -0.52000
O292        O  0.23684656  0.69296475  0.29154543    -0.96700
O293        O  0.22386746  0.74556397  0.30987104    -0.53900
O294        O  0.20316616  0.71854713  0.28183432    -0.73300
C295        C  0.18941662  0.71781377  0.26923461     0.99100
O296        O  0.19949620  0.73696391  0.20188252    -0.62100
O297        O  0.24289217  0.81353737  0.24573219    -0.56900
O298        O  0.19392008  0.76419399  0.22979078    -0.93600
O299        O  0.20558273  0.79019531  0.24611219    -0.92000
O300        O  0.26167738  0.79833471  0.20558040    -0.92400
O301        O  0.25031679  0.76823623  0.18273560    -0.91100
C302        C  0.19244861  0.78195137  0.23583822     1.17900
H303        H  0.27615735  0.78968310  0.24481901     0.33900
H304        H  0.24764609  0.72834461  0.20393467     0.44700
H305        H  0.20713944  0.75404765  0.26860591     0.38200
H306        H  0.27640500  0.71405385  0.27672266     0.34700
H307        H  0.28993144  0.76019155  0.17972863     0.26500
H308        H  0.27616485  0.66968649  0.24361661     0.32400
H309        H  0.23179166  0.68621715  0.28003522     0.38400
H310        H  0.27319745  0.80503041  0.21094174     0.32800
H311        H  0.23504515  0.81389648  0.23373318     0.31700
H312        H  0.20581085  0.78439791  0.28628542     0.33400
H313        H  0.21513463  0.73610525  0.31640796     0.32300
H314        H  0.24172424  0.75672997  0.18146479     0.36300
H315        H  0.18547620  0.73722568  0.20557048     0.29100
H316        H  0.32222849  0.75478005  0.28634584     0.33300
H317        H  0.24573514  0.71527714  0.32144486     0.36200
H318        H  0.23585629  0.82259408  0.25454934     0.28800
H319        H  0.20183650  0.74989717  0.19568122     0.41600
H320        H  0.29820203  0.70963792  0.20939624     0.31700
H321        H  0.29402191  0.74106748  0.19186652     0.39300
H322        H  0.21482632  0.75549479  0.30414651     0.31200
H323        H  0.26813575  0.67797529  0.26319093     0.31200
H324        H  0.30714146  0.74321003  0.29916595     0.31500
Zr325      Zr  0.25782385  0.20400966  0.25224500     2.17500
O326        O  0.26930530  0.17385684  0.26824498    -0.50900
O327        O  0.26604579  0.18691584  0.22244012    -0.74100
O328        O  0.23225024  0.17953725  0.25627988    -0.80900
O329        O  0.30561551  0.22932750  0.26596854    -0.82600
O330        O  0.20251642  0.19413829  0.25186267    -0.78200
O331        O  0.29048640  0.19971202  0.26584464    -0.89900
O332        O  0.25762112  0.20678917  0.19736721    -0.75800
O333        O  0.23396962  0.21478546  0.22937178    -0.85300
O334        O  0.27360798  0.22776502  0.23225926    -0.85000
O335        O  0.23143451  0.21755738  0.27126692    -0.71800
O336        O  0.26771884  0.22989846  0.27323982    -0.83900
Zr337      Zr  0.23260114  0.27919139  0.24869581     2.26400
Zr338      Zr  0.20795843  0.22910781  0.24799404     2.06300
Zr339      Zr  0.28291698  0.25390369  0.25306921     2.10000
Zr340      Zr  0.24943867  0.23893723  0.20985816     1.78800
O341        O  0.30282055  0.26935845  0.27760052    -0.92700
O342        O  0.22225020  0.23431874  0.18775149    -0.40500
O343        O  0.25909254  0.26518424  0.23021926    -0.77100
O344        O  0.22268515  0.25338768  0.22738714    -0.95800
O345        O  0.21729079  0.25525036  0.26876599    -0.89100
O346        O  0.25674683  0.26836318  0.27148577    -0.92000
C347        C  0.26381693  0.19036046  0.20431246     1.01800
C348        C  0.30503058  0.21079497  0.26954620     1.14700
C349        C  0.21347730  0.17901519  0.25511778     1.05500
O350        O  0.18735623  0.21888391  0.22139665    -0.94100
O351        O  0.18266242  0.25341870  0.24112780    -0.89900
O352        O  0.19757576  0.28305991  0.24047592    -0.83000
C353        C  0.18243836  0.27213184  0.23872488     1.12100
O354        O  0.24797461  0.21807581  0.31484115    -0.96100
Zr355      Zr  0.24140872  0.24414684  0.29122422     1.88900
O356        O  0.22573887  0.29673919  0.27871787    -0.72800
O357        O  0.18362604  0.22453731  0.27332902    -0.52000
O358        O  0.21254948  0.23724053  0.31077896    -0.96700
O359        O  0.26710200  0.25309065  0.31376893    -0.53900
O360        O  0.22939137  0.27501310  0.30356421    -0.73300
C361        C  0.22506089  0.29204102  0.29670395     0.99100
O362        O  0.22492563  0.31085749  0.23348395    -0.62100
O363        O  0.30973641  0.25270944  0.22985312    -0.56900
O364        O  0.25824827  0.30213464  0.23840280    -0.93600
O365        O  0.28818156  0.28788240  0.24354040    -0.92000
O366        O  0.27855684  0.24233884  0.18977840    -0.92400
O367        O  0.24817145  0.26556574  0.18615470    -0.91100
C368        C  0.27713437  0.30236762  0.23819365     1.17900
H369        H  0.28488100  0.22210084  0.22580619     0.33900
H370        H  0.21337787  0.25833320  0.21799338     0.44700
H371        H  0.26149497  0.27919950  0.27897423     0.38200
H372        H  0.22582380  0.20767047  0.27960537     0.34700
H373        H  0.22835053  0.23326083  0.17483579     0.26500
H374        H  0.18045282  0.23795557  0.27792232     0.32400
H375        H  0.21431964  0.24474275  0.32281466     0.38400
H376        H  0.27545294  0.23551855  0.17762487     0.32800
H377        H  0.30404594  0.25821237  0.21779874     0.31700
H378        H  0.31564566  0.27147757  0.27127784     0.33400
H379        H  0.26109129  0.26318784  0.32219950     0.32300
H380        H  0.24210202  0.27674711  0.19313471     0.36300
H381        H  0.21697898  0.30801704  0.22193412     0.29100
H382        H  0.26632128  0.16304198  0.25930391     0.33300
H383        H  0.24600650  0.22414165  0.32764350     0.36200
H384        H  0.31897536  0.26281801  0.23420958     0.28800
H385        H  0.21589808  0.31771229  0.24245662     0.41600
H386        H  0.19487835  0.20818026  0.21506600     0.31700
H387        H  0.21752719  0.22094241  0.19066521     0.39300
H388        H  0.27681983  0.26030666  0.30594289     0.31200
H389        H  0.17170293  0.22041872  0.26644445     0.31200
H390        H  0.26049920  0.17190086  0.27945331     0.31500
C391        C  0.60261964  0.82876980  0.64278180     0.80700
N392        N  0.59594105  0.84503577  0.63323852    -0.77600
C393        C  0.57743805  0.84569322  0.62603263     0.83100
N394        N  0.56571921  0.82984176  0.62817617    -0.77600
C395        C  0.57227234  0.81341737  0.63765492     0.83200
N396        N  0.59059139  0.81322838  0.64509203    -0.79300
C397        C  0.46293554  0.67509812  0.62693432     0.80700
N398        N  0.44463558  0.67907045  0.63383054    -0.77600
C399        C  0.44093357  0.69604412  0.64350400     0.83100
N400        N  0.45576434  0.70870659  0.64651889    -0.77600
C401        C  0.47413017  0.70470425  0.64011587     0.83200
N402        N  0.47760420  0.68790596  0.63015440    -0.79300
Zr403      Zr  0.48806042  0.00820811  0.46969807     2.17500
O404        O  0.48951513  0.02109092  0.43677343    -0.50900
O405        O  0.46097005  0.98814155  0.45865811    -0.74100
O406        O  0.50961298  0.98777508  0.44935862    -0.80900
O407        O  0.46577974  0.05837535  0.48323568    -0.82600
O408        O  0.52812800  0.96775956  0.46866235    -0.78200
O409        O  0.47381121  0.03908829  0.45796670    -0.89900
O410        O  0.44655685  0.97466903  0.48495004    -0.75800
O411        O  0.48866774  0.97881507  0.48859564    -0.85300
O412        O  0.46356052  0.01262335  0.49409466    -0.85000
O413        O  0.52088003  0.00605263  0.48220144    -0.71800
O414        O  0.49719026  0.03655015  0.48785856    -0.83900
Zr415      Zr  0.50747631  0.00863670  0.54433187     2.26400
Zr416      Zr  0.52103951  0.97669016  0.50168550     2.06300
Zr417      Zr  0.47329490  0.04025123  0.51280236     2.10000
Zr418      Zr  0.46486590  0.98358332  0.51338224     1.78800
O419        O  0.47495457  0.07535560  0.51874943    -0.92700
O420        O  0.46371097  0.94779839  0.51381864    -0.40500
O421        O  0.47451244  0.01111320  0.53218807    -0.77100
O422        O  0.49707531  0.98034250  0.52668557    -0.95800
O423        O  0.53125234  0.00464942  0.51952986    -0.89100
O424        O  0.50587750  0.03815803  0.52557827    -0.92000
C425        C  0.44782101  0.97749341  0.46665417     1.01800
C426        C  0.46720218  0.05529119  0.46505633     1.14700
C427        C  0.52286995  0.97435797  0.45202917     1.05500
O428        O  0.51255714  0.94212310  0.50013652    -0.94100
O429        O  0.53343235  0.96073580  0.53071253    -0.89900
O430        O  0.52482388  0.97941113  0.55649519    -0.83000
C431        C  0.53258651  0.96400450  0.54890370     1.12100
O432        O  0.53733840  0.04971081  0.46985100    -0.96100
Zr433      Zr  0.52948355  0.03403074  0.50062538     1.88900
O434        O  0.53723747  0.02531731  0.55433671    -0.72800
O435        O  0.55596248  0.97065927  0.49673430    -0.52000
O436        O  0.56265505  0.02517674  0.49058595    -0.96700
O437        O  0.53016556  0.06974489  0.50326096    -0.53900
O438        O  0.55065685  0.03935930  0.52759642    -0.73300
C439        C  0.55068616  0.03495975  0.54555950     0.99100
O440        O  0.49870154  0.00009079  0.57748804    -0.62100
O441        O  0.43761387  0.04167122  0.51434088    -0.56900
O442        O  0.48913937  0.03093710  0.56488005    -0.93600
O443        O  0.46724509  0.04818411  0.54651760    -0.92000
O444        O  0.43170795  0.99435352  0.52153854    -0.92400
O445        O  0.45362517  0.96971269  0.54394067    -0.91100
C446        C  0.47487799  0.04329644  0.56281860     1.17900
H447        H  0.45075986  0.01478742  0.48847148     0.33900
H448        H  0.49689953  0.96878954  0.53486506     0.44700
H449        H  0.50871784  0.04939471  0.53345459     0.38200
H450        H  0.53054803  0.00533118  0.47204989     0.34700
H451        H  0.44966384  0.94472291  0.51230259     0.26500
H452        H  0.56233047  0.97564524  0.50849502     0.32400
H453        H  0.56352968  0.01073087  0.49228459     0.38400
H454        H  0.43339665  0.00426735  0.53175027     0.32800
H455        H  0.43456369  0.05211682  0.52378054     0.31700
H456        H  0.48882760  0.07774191  0.52194808     0.33400
H457        H  0.53033261  0.07246799  0.51726315     0.32300
H458        H  0.46540553  0.96907713  0.55224849     0.36300
H459        H  0.49428547  0.98629975  0.57715690     0.29100
H460        H  0.48251639  0.01153794  0.42876991     0.33300
H461        H  0.54957509  0.05696974  0.47208309     0.36200
H462        H  0.43341265  0.04733919  0.50178040     0.28800
H463        H  0.51113237  0.99969656  0.58481823     0.41600
H464        H  0.52514838  0.93516298  0.49769253     0.31700
H465        H  0.46980094  0.94375392  0.50147494     0.39300
H466        H  0.51703297  0.07426067  0.49890915     0.31200
H467        H  0.55763057  0.95619453  0.49761495     0.31200
H468        H  0.50339384  0.02015332  0.43266926     0.31500
C469        C  0.32290820  0.36932147  0.58330492     0.80700
N470        N  0.30884589  0.36811615  0.56957181    -0.77600
C471        C  0.31204714  0.37498204  0.55143479     0.83100
N472        N  0.32933817  0.38367270  0.54712830    -0.77600
C473        C  0.34362282  0.38525533  0.56068853     0.83200
N474        N  0.34016036  0.37811060  0.57883196    -0.79300
C475        C  0.19525848  0.36498432  0.41854391     0.80700
N476        N  0.20939968  0.36502529  0.43241395    -0.77600
C477        C  0.20511629  0.37088706  0.45068186     0.83100
N478        N  0.18664196  0.37722414  0.45494030    -0.77600
C479        C  0.17242156  0.37744040  0.44124269     0.83200
N480        N  0.17679215  0.37096102  0.42325304    -0.79300
C481        C  0.54642971  0.35112438  0.36327063     0.80700
N482        N  0.56187960  0.34815104  0.35104873    -0.77600
C483        C  0.56461221  0.33042354  0.34235596     0.83100
N484        N  0.55218990  0.31565809  0.34652056    -0.77600
C485        C  0.53676059  0.31838212  0.35852749     0.83200
N486        N  0.53397311  0.33609937  0.36697297    -0.79300
C487        C  0.44605258  0.16577724  0.36849528     0.80700
N488        N  0.43054162  0.16627865  0.35621267    -0.77600
C489        C  0.42715533  0.18205915  0.34448627     0.83100
N490        N  0.43931412  0.19766166  0.34541754    -0.77600
C491        C  0.45473926  0.19741007  0.35771903     0.83200
N492        N  0.45788811  0.18159406  0.36941124    -0.79300
C493        C  0.62808917  0.56849024  0.85715996     0.80700
N494        N  0.62401616  0.55582793  0.84270091    -0.77600
C495        C  0.63229506  0.55815770  0.82503439     0.83100
N496        N  0.64478105  0.57311645  0.82188740    -0.77600
C497        C  0.64952042  0.58557239  0.83623477     0.83200
N498        N  0.64087781  0.58339617  0.85390553    -0.79300
C499        C  0.62865601  0.43650641  0.70200555     0.80700
N500        N  0.62775490  0.45037503  0.71585363    -0.77600
C501        C  0.61503669  0.46576333  0.71457209     0.83100
N502        N  0.60298955  0.46744152  0.69909248    -0.77600
C503        C  0.60327482  0.45340900  0.68523616     0.83200
N504        N  0.61618857  0.43796379  0.68668648    -0.79300
Zr505      Zr  0.52717605  0.51373923  0.46475290     2.17500
O506        O  0.55637662  0.50490691  0.44624076    -0.50900
O507        O  0.51045280  0.53169853  0.43872019    -0.74100
O508        O  0.52350698  0.48546207  0.44373793    -0.80900
O509        O  0.55236134  0.55689127  0.48784346    -0.82600
O510        O  0.50281604  0.46380603  0.45799675    -0.78200
O511        O  0.55161147  0.53941895  0.46014565    -0.89900
O512        O  0.48147518  0.54258864  0.45077022    -0.75800
O513        O  0.49345154  0.50581515  0.46869583    -0.85300
O514        O  0.51209396  0.54120868  0.48015445    -0.85000
O515        O  0.52659267  0.48456688  0.48473051    -0.71800
O516        O  0.54395241  0.51701735  0.49496912    -0.83900
Zr517      Zr  0.49346614  0.50793941  0.53473564     2.26400
Zr518      Zr  0.49261679  0.47713433  0.48898967     2.06300
Zr519      Zr  0.52827505  0.54432304  0.51037852     2.10000
Zr520      Zr  0.47860187  0.53320252  0.48436398     1.78800
O521        O  0.55796151  0.54995358  0.52880215    -0.92700
O522        O  0.44917564  0.52022071  0.46966520    -0.40500
O523        O  0.49431349  0.53708623  0.51484644    -0.77100
O524        O  0.47674116  0.50447459  0.50440123    -0.95800
O525        O  0.50858873  0.48033695  0.51952821    -0.89100
O526        O  0.52721371  0.51584541  0.53081326    -0.92000
C527        C  0.49389391  0.54075940  0.43695997     1.01800
C528        C  0.55840192  0.55323541  0.47065885     1.14700
C529        C  0.51436960  0.46910548  0.44432606     1.05500
O530        O  0.46238608  0.47151939  0.47145374    -0.94100
O531        O  0.46932285  0.46302368  0.51175261    -0.89900
O532        O  0.46774454  0.48299652  0.53786953    -0.83000
C533        C  0.46202278  0.46807441  0.52812644     1.12100
O534        O  0.57038499  0.47329748  0.49935015    -0.96100
Zr535      Zr  0.54210962  0.48837114  0.51529887     1.88900
O536        O  0.51185684  0.49253664  0.56129358    -0.72800
O537        O  0.50072494  0.44233281  0.49305849    -0.52000
O538        O  0.54304565  0.45260134  0.51785042    -0.96700
O539        O  0.57300722  0.50091381  0.52728942    -0.53900
O540        O  0.54102588  0.48180805  0.54954931    -0.73300
C541        C  0.52882773  0.48439972  0.56341657     0.99100
O542        O  0.46812301  0.51177743  0.55932478    -0.62100
O543        O  0.52134584  0.57910601  0.50441353    -0.56900
O544        O  0.49261760  0.53977964  0.55107152    -0.93600
O545        O  0.51685974  0.55931749  0.53993298    -0.92000
O546        O  0.47358392  0.56874803  0.48425474    -0.92400
O547        O  0.44917806  0.54467622  0.50098651    -0.91100
C548        C  0.50270745  0.55558126  0.55148024     1.17900
H549        H  0.51352841  0.55304298  0.47250857     0.33900
H550        H  0.46292929  0.50185268  0.50640823     0.44700
H551        H  0.53332978  0.51879424  0.54297723     0.38200
H552        H  0.53332566  0.47386191  0.47834962     0.34700
H553        H  0.44338682  0.53147865  0.46239954     0.26500
H554        H  0.49254308  0.43553287  0.48349217     0.32400
H555        H  0.53304931  0.44928420  0.52767745     0.38400
H556        H  0.48411531  0.57402517  0.47594585     0.32800
H557        H  0.50773186  0.58127959  0.50897348     0.31700
H558        H  0.56079508  0.56404009  0.52666949     0.33400
H559        H  0.56925788  0.51018661  0.53763022     0.32300
H560        H  0.45226854  0.54306403  0.51487247     0.36300
H561        H  0.47479402  0.51559437  0.57135641     0.29100
H562        H  0.55232159  0.50437210  0.43254885     0.33300
H563        H  0.57809630  0.46678289  0.50974882     0.36200
H564        H  0.52957344  0.58614690  0.51376161     0.28800
H565        H  0.46015792  0.52343641  0.55540496     0.41600
H566        H  0.45986160  0.45732693  0.47327920     0.31700
H567        H  0.45404946  0.51117944  0.45956121     0.39300
H568        H  0.57798260  0.50940381  0.51674197     0.31200
H569        H  0.51429351  0.44084552  0.48814637     0.31200
H570        H  0.55976430  0.49117820  0.44995232     0.31500
C571        C  0.30482245  0.09887355  0.09905296     0.80700
N572        N  0.32127266  0.08755791  0.09769900    -0.77600
C573        C  0.32584634  0.07831225  0.08096414     0.83100
N574        N  0.31388219  0.08092879  0.06545765    -0.77600
C575        C  0.29729091  0.09219819  0.06661147     0.83200
N576        N  0.29279051  0.10102704  0.08357487    -0.79300
C577        C  0.21087104  0.12073503  0.91333271     0.80700
N578        N  0.19373794  0.11085858  0.91252412    -0.77600
C579        C  0.18770990  0.09963236  0.92765085     0.83100
N580        N  0.19940122  0.09793760  0.94346256    -0.77600
C581        C  0.21681798  0.10727943  0.94436273     0.83200
N582        N  0.22234573  0.11885493  0.92927455    -0.79300
C583        C  0.13880148  0.44095359  0.79940989     0.80700
N584        N  0.12748241  0.44256473  0.81551203    -0.77600
C585        C  0.11637347  0.45903293  0.81856871     0.83100
N586        N  0.11666979  0.47386294  0.80526146    -0.77600
C587        C  0.12799000  0.47260382  0.78917076     0.83200
N588        N  0.13894632  0.45602017  0.78635804    -0.79300
C589        C  0.10881437  0.59133768  0.65639729     0.80700
N590        N  0.12088242  0.60703243  0.65754440    -0.77600
C591        C  0.13278751  0.60916546  0.67311277     0.83100
N592        N  0.13267828  0.59527291  0.68732437    -0.77600
C593        C  0.12101136  0.57930226  0.68626804     0.83200
N594        N  0.10901616  0.57759755  0.67076758    -0.79300
Zr595      Zr  0.27044138  0.30097794  0.75780541     2.17500
O596        O  0.27599212  0.33477252  0.76766163    -0.50900
O597        O  0.28199366  0.31696669  0.72797792    -0.74100
O598        O  0.30262016  0.30455130  0.77343079    -0.80900
O599        O  0.21452122  0.31083101  0.75632959    -0.82600
O600        O  0.31860833  0.27500734  0.77253722    -0.78200
O601        O  0.24349893  0.32415692  0.76511693    -0.89900
O602        O  0.28186685  0.29493098  0.70355300    -0.75800
O603        O  0.28816793  0.27648962  0.74028563    -0.85300
O604        O  0.24926523  0.29038172  0.73273962    -0.85000
O605        O  0.27756305  0.27517581  0.78108183    -0.71800
O606        O  0.24196967  0.28775429  0.77355155    -0.83900
Zr607      Zr  0.24657975  0.22593260  0.75366120     2.26400
Zr608      Zr  0.29505993  0.25056736  0.76305092     2.06300
Zr609      Zr  0.22117468  0.27661628  0.74837087     2.10000
Zr610      Zr  0.26681486  0.26558318  0.71561627     1.78800
O611        O  0.19119211  0.27912040  0.76736091    -0.92700
O612        O  0.29696558  0.25456262  0.69993365    -0.40500
O613        O  0.23871237  0.25182735  0.73090303    -0.77100
O614        O  0.27469048  0.23934649  0.73732967    -0.95800
O615        O  0.26719332  0.23688859  0.77890151    -0.89100
O616        O  0.22815759  0.25033315  0.77081353    -0.92000
C617        C  0.28536871  0.31186126  0.71044348     1.01800
C618        C  0.22479330  0.32498849  0.76275692     1.14700
C619        C  0.31774159  0.29339335  0.77650798     1.05500
O620        O  0.32565585  0.24685107  0.74522940    -0.94100
O621        O  0.30175810  0.21594949  0.75705937    -0.89900
O622        O  0.27318211  0.20137568  0.74918801    -0.83000
C623        C  0.29193870  0.20109509  0.75140963     1.12100
O624        O  0.24804709  0.28864259  0.81846978    -0.96100
Zr625      Zr  0.24901021  0.26145366  0.79578151     1.88900
O626        O  0.23938172  0.20818556  0.78381007    -0.72800
O627        O  0.30873941  0.23792660  0.79320513    -0.52000
O628        O  0.27141388  0.25673365  0.82282003    -0.96700
O629        O  0.21670878  0.26570944  0.81044546    -0.53900
O630        O  0.24256939  0.22911449  0.80896005    -0.73300
C631        C  0.23948651  0.21209917  0.80193658     0.99100
O632        O  0.23448514  0.19695518  0.73735269    -0.62100
O633        O  0.20575109  0.29035640  0.71944611    -0.56900
O634        O  0.21399351  0.22213041  0.73958703    -0.93600
O635        O  0.19897956  0.25198462  0.73641722    -0.92000
O636        O  0.24550349  0.27759342  0.68982117    -0.92400
O637        O  0.26062772  0.24055900  0.69157343    -0.91100
C638        C  0.19949728  0.23326381  0.73432796     1.17900
H639        H  0.24570737  0.30129465  0.72439029     0.33900
H640        H  0.28139862  0.22980151  0.72939846     0.44700
H641        H  0.21622027  0.24483144  0.77587624     0.38200
H642        H  0.28533900  0.27971192  0.79167052     0.34700
H643        H  0.29640495  0.26048802  0.68683846     0.26500
H644        H  0.32251072  0.23448991  0.79003471     0.32400
H645        H  0.27728274  0.24348931  0.82095371     0.38400
H646        H  0.23250972  0.27212658  0.69294005     0.32800
H647        H  0.19310887  0.29587736  0.72406192     0.31700
H648        H  0.18053540  0.28026868  0.75773109     0.33400
H649        H  0.20997904  0.25306603  0.80871982     0.32300
H650        H  0.25625296  0.22900417  0.69914085     0.36300
H651        H  0.24453649  0.19328552  0.72765917     0.29100
H652        H  0.28936814  0.33806526  0.76326458     0.33300
H653        H  0.24365650  0.28294014  0.83091863     0.36200
H654        H  0.21342771  0.30202761  0.71578592     0.28800
H655        H  0.23488432  0.18634949  0.74721793     0.41600
H656        H  0.32197104  0.24037530  0.73306259     0.31700
H657        H  0.30747443  0.26177378  0.70651717     0.39300
H658        H  0.20968289  0.27510103  0.80182632     0.31200
H659        H  0.30963659  0.24954448  0.80163936     0.31200
H660        H  0.27671662  0.33432066  0.78191347     0.31500
Zr661      Zr  0.50120148  0.00602609  0.03781772     2.17500
O662        O  0.50859420  0.99693551  0.07118077    -0.50900
O663        O  0.47008876  0.02102493  0.04682956    -0.74100
O664        O  0.51580380  0.03292092  0.05581385    -0.80900
O665        O  0.48086122  0.95479494  0.02878914    -0.82600
O666        O  0.53396476  0.05137659  0.03518019    -0.78200
O667        O  0.48742903  0.97664436  0.05255958    -0.89900
O668        O  0.45581371  0.03382725  0.01979660    -0.75800
O669        O  0.49851886  0.03362742  0.01648224    -0.85300
O670        O  0.47805088  0.99721913  0.01383966    -0.85000
O671        O  0.53370877  0.01060714  0.02522999    -0.71800
O672        O  0.51431323  0.97711135  0.02260127    -0.83900
Zr673      Zr  0.52099933  0.00058832  0.96381442     2.26400
Zr674      Zr  0.53060617  0.03785450  0.00308526     2.06300
Zr675      Zr  0.49128882  0.96882981  0.99813459     2.10000
Zr676      Zr  0.47574480  0.02453125  0.99233711     1.78800
O677        O  0.50314072  0.93489415  0.99806494    -0.92700
O678        O  0.47121033  0.05987406  0.98793440    -0.40500
O679        O  0.48859153  0.99613567  0.97630266    -0.77100
O680        O  0.50754393  0.02957346  0.97868884    -0.95800
O681        O  0.54406000  0.00935969  0.98777041    -0.89100
O682        O  0.52342675  0.97294102  0.98504512    -0.92000
C683        C  0.45631674  0.03042140  0.03801213     1.01800
C684        C  0.48119325  0.96008530  0.04651604     1.14700
C685        C  0.52737232  0.04720706  0.05206161     1.05500
O686        O  0.51842415  0.07157237  0.00008850    -0.94100
O687        O  0.54395342  0.05026047  0.97267957    -0.89900
O688        O  0.53862705  0.02762338  0.94947529    -0.83000
C689        C  0.54517911  0.04409851  0.95519970     1.12100
O690        O  0.55806880  0.97201546  0.04098468    -0.96100
Zr691      Zr  0.54621404  0.98203103  0.00922321     1.88900
O692        O  0.55055587  0.98269031  0.95412204    -0.72800
O693        O  0.56454451  0.04732429  0.00774089    -0.52000
O694        O  0.57785513  0.99623272  0.01643388    -0.96700
O695        O  0.55187686  0.94675840  0.01319057    -0.53900
O696        O  0.56637145  0.97353505  0.98161655    -0.73300
C697        C  0.56511244  0.97480452  0.96319688     0.99100
O698        O  0.51280873  0.01283416  0.93157795    -0.62100
O699        O  0.45710085  0.95976668  0.99435942    -0.56900
O700        O  0.50366757  0.97625600  0.94523362    -0.93600
O701        O  0.48484735  0.95803795  0.96544593    -0.92000
O702        O  0.44399598  0.00993061  0.98646847    -0.92400
O703        O  0.46206307  0.03363729  0.96103070    -0.91100
C704        C  0.49107849  0.96281907  0.94855867     1.17900
H705        H  0.46548175  0.99427768  0.01951104     0.33900
H706        H  0.50646221  0.04010173  0.96928219     0.44700
H707        H  0.52765854  0.96128355  0.97825592     0.38200
H708        H  0.54266182  0.01362743  0.03551513     0.34700
H709        H  0.45689177  0.06214739  0.98906086     0.26500
H710        H  0.56389608  0.06158059  0.01048217     0.32400
H711        H  0.57957024  0.00669250  0.00657677     0.38400
H712        H  0.44699749  0.99791665  0.97899428     0.32800
H713        H  0.45699134  0.94536858  0.99655318     0.31700
H714        H  0.49114813  0.92694392  0.99731978     0.33400
H715        H  0.56562977  0.94451845  0.00908584     0.32300
H716        H  0.47127648  0.02778007  0.95156281     0.36300
H717        H  0.52003695  0.00423310  0.92250658     0.29100
H718        H  0.50145097  0.00663482  0.07923675     0.33300
H719        H  0.54616274  0.97167787  0.04916452     0.36200
H720        H  0.45018252  0.96531539  0.00568213     0.28800
H721        H  0.49880264  0.00989714  0.92958680     0.41600
H722        H  0.52828713  0.07957459  0.00674796     0.31700
H723        H  0.47668224  0.06568438  0.99975696     0.39300
H724        H  0.54397262  0.94060833  0.00300746     0.31200
H725        H  0.56854317  0.04108881  0.02011076     0.31200
H726        H  0.52264228  0.99978973  0.07300095     0.31500
C727        C  0.87826968  0.41351230  0.30080221     0.80700
N728        N  0.87596980  0.42883230  0.28835807    -0.77600
C729        C  0.88570691  0.44576894  0.29097752     0.83100
N730        N  0.89756721  0.44737283  0.30660751    -0.77600
C731        C  0.90018278  0.43214021  0.31933041     0.83200
N732        N  0.89058585  0.41511574  0.31605780    -0.79300
C733        C  0.86506283  0.58851521  0.18126392     0.80700
N734        N  0.87602863  0.58422743  0.16533033    -0.77600
C735        C  0.88698637  0.56734516  0.16464693     0.83100
N736        N  0.88672369  0.55464610  0.17982349    -0.77600
C737        C  0.87586761  0.55859003  0.19576915     0.83200
N738        N  0.86524154  0.57562984  0.19646406    -0.79300
C739        C  0.60013259  0.10692622  0.20100736     0.80700
N740        N  0.59885192  0.09194734  0.21405444    -0.77600
C741        C  0.59036002  0.07478771  0.20920683     0.83100
N742        N  0.58362540  0.07244260  0.19100644    -0.77600
C743        C  0.58515986  0.08700610  0.17758743     0.83200
N744        N  0.59347083  0.10428612  0.18269479    -0.79300
C745        C  0.62449119  0.93130348  0.31181093     0.80700
N746        N  0.61606866  0.93368902  0.32951841    -0.77600
C747        C  0.60452720  0.94976542  0.33320585     0.83100
N748        N  0.60139288  0.96328007  0.31899530    -0.77600
C749        C  0.60974274  0.96111176  0.30138857     0.83200
N750        N  0.62141255  0.94520550  0.29785535    -0.79300
C751        C  0.06325374  0.70116623  0.34296599     0.80700
N752        N  0.05828476  0.68517178  0.35381970    -0.77600
C753        C  0.04203712  0.68562788  0.36531719     0.83100
N754        N  0.03078451  0.70224697  0.36559142    -0.77600
C755        C  0.03572209  0.71850181  0.35528255     0.83200
N756        N  0.05194299  0.71780383  0.34393317    -0.79300
C757        C  0.91365864  0.85185422  0.33806899     0.80700
N758        N  0.92573833  0.83573750  0.33838193    -0.77600
C759        C  0.94306815  0.83598405  0.34801871     0.83100
N760        N  0.94803831  0.85246415  0.35770602    -0.77600
C761        C  0.93616996  0.86869344  0.35739970     0.83200
N762        N  0.91881477  0.86824569  0.34781799    -0.79300
C763        C  0.83508507  0.89239420  0.05493299     0.80700
N764        N  0.82259132  0.89331846  0.03969644    -0.77600
C765        C  0.80706829  0.88117717  0.03894527     0.83100
N766        N  0.80407666  0.86808267  0.05345527    -0.77600
C767        C  0.81630471  0.86691129  0.06882292     0.83200
N768        N  0.83196350  0.87911695  0.06943548    -0.79300
C769        C  0.67196370  0.88525098  0.92513408     0.80700
N770        N  0.67437033  0.87159369  0.91118726    -0.77600
C771        C  0.68988022  0.85890743  0.91186817     0.83100
N772        N  0.70282217  0.85979241  0.92662323    -0.77600
C773        C  0.70038155  0.87332469  0.94066342     0.83200
N774        N  0.68509895  0.88627630  0.93974454    -0.79300
Zr775      Zr  0.74565905  0.77937880  0.27712993     2.17500
O776        O  0.74879864  0.78166188  0.31210978    -0.50900
O777        O  0.72385614  0.80786870  0.28244583    -0.74100
O778        O  0.77496722  0.79734477  0.28727551    -0.80900
O779        O  0.71047116  0.73571622  0.28336613    -0.82600
O780        O  0.79382249  0.80349452  0.26087269    -0.78200
O781        O  0.72849313  0.75788711  0.29967824    -0.89900
O782        O  0.71156324  0.81849369  0.25368255    -0.75800
O783        O  0.75005348  0.79972316  0.24934888    -0.85300
O784        O  0.71728752  0.77521261  0.25764711    -0.85000
O785        O  0.77492804  0.76661371  0.26195389    -0.71800
O786        O  0.74458771  0.74508669  0.26917935    -0.83900
Zr787      Zr  0.75060459  0.74904819  0.20548253     2.26400
Zr788      Zr  0.77894867  0.78688062  0.23388316     2.06300
Zr789      Zr  0.71656900  0.74115779  0.24919477     2.10000
Zr790      Zr  0.72197005  0.79498336  0.22963409     1.78800
O791        O  0.71177635  0.70616211  0.25479843    -0.92700
O792        O  0.73171055  0.82594042  0.21482903    -0.40500
O793        O  0.72122400  0.76106053  0.22101620    -0.77100
O794        O  0.75085500  0.78354697  0.21341845    -0.95800
O795        O  0.77853278  0.75278833  0.22556049    -0.89100
O796        O  0.74534830  0.72863969  0.23326700    -0.92000
C797        C  0.71352026  0.81979493  0.27199495     1.01800
C798        C  0.71661075  0.74342523  0.29901272     1.14700
C799        C  0.79019267  0.80457727  0.27899226     1.05500
O800        O  0.78311044  0.82120405  0.22464159    -0.94100
O801        O  0.78941965  0.78943453  0.20072814    -0.89900
O802        O  0.77112235  0.76860129  0.18300781    -0.83000
C803        C  0.78395687  0.78224643  0.18462111     1.12100
O804        O  0.78852078  0.72897522  0.28497538    -0.96100
Zr805      Zr  0.77320008  0.73269415  0.25337255     1.88900
O806        O  0.77149222  0.71958821  0.20083078    -0.72800
O807        O  0.81381138  0.77882398  0.23283962    -0.52000
O808        O  0.80883323  0.73036227  0.25191615    -0.96700
O809        O  0.76190823  0.70276185  0.26921100    -0.53900
O810        O  0.78240574  0.70822046  0.22988131    -0.73300
C811        C  0.78095120  0.70712003  0.21151951     0.99100
O812        O  0.74343871  0.74188440  0.17183087    -0.62100
O813        O  0.68194989  0.74907730  0.25400404    -0.56900
O814        O  0.71929315  0.73536652  0.19494894    -0.93600
O815        O  0.70038539  0.72834271  0.22092330    -0.92000
O816        O  0.68632470  0.79395861  0.23010320    -0.92400
O817        O  0.70644847  0.80080912  0.19844194    -0.91100
C818        C  0.70349857  0.72865633  0.20267528     1.17900
H819        H  0.70558037  0.77912931  0.26453122     0.33900
H820        H  0.75174639  0.79180734  0.20207366     0.44700
H821        H  0.74358937  0.71508829  0.22969164     0.38200
H822        H  0.78606775  0.76741922  0.27038347     0.34700
H823        H  0.72014051  0.83476270  0.21625875     0.26500
H824        H  0.82040035  0.79168139  0.23311900     0.32400
H825        H  0.81224303  0.73355238  0.23836322     0.38400
H826        H  0.68322078  0.78030243  0.22652427     0.32800
H827        H  0.67576554  0.73626148  0.25656627     0.31700
H828        H  0.69757946  0.70494261  0.25741563     0.33400
H829        H  0.75404090  0.69604962  0.25935769     0.32300
H830        H  0.70532755  0.78757892  0.19274130     0.36300
H831        H  0.74178447  0.75477675  0.16523551     0.29100
H832        H  0.75013213  0.79581595  0.31492477     0.33300
H833        H  0.79492283  0.71581786  0.28495265     0.36200
H834        H  0.68105333  0.75598999  0.26647169     0.28800
H835        H  0.75569304  0.73614770  0.16651475     0.41600
H836        H  0.77736341  0.82885360  0.23539805     0.31700
H837        H  0.74156356  0.83128949  0.22373134     0.39300
H838        H  0.75218370  0.70726684  0.27890424     0.31200
H839        H  0.81671755  0.77273583  0.24555959     0.31200
H840        H  0.76167914  0.77560977  0.31533739     0.31500
C841        C  0.39833605  0.59463232  0.29866159     0.80700
N842        N  0.41045842  0.59189342  0.31399657    -0.77600
C843        C  0.41966686  0.57425206  0.31686258     0.83100
N844        N  0.41693956  0.55944883  0.30416008    -0.77600
C845        C  0.40487919  0.56197991  0.28870931     0.83200
N846        N  0.39541035  0.57952129  0.28637222    -0.79300
C847        C  0.35486273  0.42049406  0.19379609     0.80700
N848        N  0.36076707  0.43426366  0.20657594    -0.77600
C849        C  0.37258053  0.44911611  0.20077179     0.83100
N850        N  0.37819432  0.45024012  0.18204598    -0.77600
C851        C  0.37261030  0.43662895  0.16903159     0.83200
N852        N  0.36093770  0.42170854  0.17505829    -0.79300
Zr853      Zr  0.49669205  0.53307078  0.99132354     2.17500
O854        O  0.49679955  0.55729591  0.96511653    -0.50900
O855        O  0.51057734  0.55809361  0.01234276    -0.74100
O856        O  0.46565392  0.55218136  0.98807655    -0.80900
O857        O  0.54499957  0.51039444  0.97246752    -0.82600
O858        O  0.44126703  0.53495360  0.00250638    -0.78200
O859        O  0.52512424  0.53757067  0.97039155    -0.89900
O860        O  0.51964398  0.54346823  0.04059635    -0.75800
O861        O  0.48251929  0.52680896  0.02220794    -0.85300
O862        O  0.52157830  0.51687229  0.01004825    -0.85000
O863        O  0.46962858  0.51177265  0.98497453    -0.71800
O864        O  0.50567747  0.50328551  0.97461882    -0.83900
Zr865      Zr  0.48804932  0.45934802  0.01905470     2.26400
Zr866      Zr  0.45572192  0.50531372  0.01614345     2.06300
Zr867      Zr  0.52982323  0.48691190  0.99418425     2.10000
Zr868      Zr  0.50740687  0.51035810  0.04067241     1.78800
O869        O  0.54386990  0.46827885  0.96756926    -0.92700
O870        O  0.48945585  0.52728270  0.06619093    -0.40500
O871        O  0.51578841  0.48001744  0.02516304    -0.77100
O872        O  0.48013563  0.48941125  0.03581783    -0.95800
O873        O  0.46371617  0.47541184  0.99972535    -0.89100
O874        O  0.50293464  0.46556942  0.98845145    -0.92000
C875        C  0.51861725  0.55829364  0.02911501     1.01800
C876        C  0.54057708  0.52758470  0.96586962     1.14700
C877        C  0.44753088  0.54960229  0.99265285     1.05500
O878        O  0.44254731  0.52463026  0.04269876    -0.94100
O879        O  0.43975282  0.48260831  0.03798584    -0.89900
O880        O  0.45956292  0.45556591  0.04054407    -0.83000
C881        C  0.44409891  0.46564616  0.04510523     1.12100
O882        O  0.47335029  0.50163336  0.94011361    -0.96100
Zr883      Zr  0.47875355  0.48196282  0.96928349     1.88900
O884        O  0.47645367  0.43388382  0.99676328    -0.72800
O885        O  0.42375175  0.49709341  0.00323365    -0.52000
O886        O  0.44519161  0.48118492  0.95746640    -0.96700
O887        O  0.49897246  0.46890742  0.94312197    -0.53900
O888        O  0.46984982  0.44794067  0.96766717    -0.73300
C889        C  0.47064141  0.43307880  0.97909791     0.99100
O890        O  0.48571881  0.43331219  0.04339143    -0.62100
O891        O  0.56176586  0.49488230  0.00737841    -0.56900
O892        O  0.51915506  0.44146196  0.02444943    -0.93600
O893        O  0.54338819  0.45674451  0.00774626    -0.92000
O894        O  0.54091554  0.50777746  0.05258881    -0.92400
O895        O  0.50971805  0.49240687  0.07118162    -0.91100
C896        C  0.53699473  0.44291318  0.01863534     1.17900
H897        H  0.53314445  0.52480243  0.01099789     0.33900
H898        H  0.47520906  0.48680873  0.04862856     0.44700
H899        H  0.50751745  0.45346374  0.98270016     0.38200
H900        H  0.46025107  0.51796097  0.97638382     0.34700
H901        H  0.49969261  0.53179092  0.07515989     0.26500
H902        H  0.41453375  0.50675571  0.00903095     0.32400
H903        H  0.43797634  0.47343691  0.96724771     0.38400
H904        H  0.54874159  0.51592924  0.04362448     0.32800
H905        H  0.56212548  0.48850186  0.02026860     0.31700
H906        H  0.55819409  0.47000749  0.96873272     0.33400
H907        H  0.49016435  0.46032057  0.93576725     0.32300
H908        H  0.51489370  0.47923718  0.06765491     0.36300
H909        H  0.49105245  0.42123309  0.03734829     0.29100
H910        H  0.49345520  0.57008777  0.97107684     0.33300
H911        H  0.47090388  0.49213456  0.92968926     0.36200
H912        H  0.57128550  0.48721967  0.99956402     0.28800
H913        H  0.49524617  0.43666227  0.05355255     0.41600
H914        H  0.45056550  0.52058878  0.05398072     0.31700
H915        H  0.48431902  0.53951988  0.06007335     0.39300
H916        H  0.50847996  0.45970381  0.94927180     0.31200
H917        H  0.42438011  0.50092312  0.98943653     0.31200
H918        H  0.48547465  0.55418484  0.95683407     0.31500
Zr919      Zr  0.99810067  0.01939412  0.46191788     2.17500
O920        O  0.99558248  0.04610735  0.43834845    -0.50900
O921        O  0.98643913  0.99309317  0.44146371    -0.74100
O922        O  0.02491816  0.02002189  0.43837213    -0.80900
O923        O  0.94933259  0.03143290  0.48569090    -0.82600
O924        O  0.05367327  0.01639092  0.45451747    -0.78200
O925        O  0.96507131  0.03267403  0.45673612    -0.89900
O926        O  0.99086560  0.96457464  0.45844577    -0.75800
O927        O  0.01981849  0.99307776  0.47050873    -0.85300
O928        O  0.97992666  0.99765305  0.48209864    -0.85000
O929        O  0.02481722  0.03432299  0.47851204    -0.71800
O930        O  0.98780069  0.03826567  0.48936576    -0.83900
Zr931      Zr  0.01940170  0.00483096  0.53525678     2.26400
Zr932      Zr  0.04622297  0.00761478  0.48754948     2.06300
Zr933      Zr  0.97053350  0.01600108  0.50978971     2.10000
Zr934      Zr  0.00180503  0.97162827  0.49082106     1.78800
O935        O  0.94759473  0.03922820  0.52446937    -0.92700
O936        O  0.02600632  0.94776048  0.47926290    -0.40500
O937        O  0.99243888  0.98978711  0.51889610    -0.77100
O938        O  0.02881381  0.98508880  0.50788932    -0.95800
O939        O  0.03692021  0.02679146  0.51494281    -0.89100
O940        O  0.99694934  0.03084074  0.52688798    -0.92000
C941        C  0.98559515  0.97432349  0.44337096     1.01800
C942        C  0.95011141  0.03592132  0.46763854     1.14700
C943        C  0.04373623  0.01954914  0.43908765     1.05500
O944        O  0.06414386  0.98139087  0.47122965    -0.94100
O945        O  0.06885001  0.99353886  0.51102135    -0.89900
O946        O  0.05205927  0.98946616  0.53901254    -0.83000
C947        C  0.06748426  0.98725879  0.52846453     1.12100
O948        O  0.00954693  0.07979279  0.48360276    -0.96100
Zr949      Zr  0.01443870  0.05248327  0.50619154     1.88900
O950        O  0.03013288  0.03253693  0.55488822    -0.72800
O951        O  0.07399949  0.02962814  0.48841714    -0.52000
O952        O  0.04413540  0.07119873  0.50087004    -0.96700
O953        O  0.98943866  0.07535584  0.51815065    -0.53900
O954        O  0.02633012  0.06091649  0.53767553    -0.73300
C955        C  0.03127031  0.05129349  0.55287892     0.99100
O956        O  0.02361120  0.98840360  0.56646954    -0.62100
O957        O  0.94534101  0.99124971  0.50653966    -0.56900
O958        O  0.99203582  0.99496823  0.55568407    -0.93600
O959        O  0.96342825  0.00648765  0.54273695    -0.92000
O960        O  0.97134658  0.95391177  0.49509917    -0.92400
O961        O  0.00432172  0.94315065  0.51229571    -0.91100
C962        C  0.97340440  0.99792636  0.55609480     1.17900
H963        H  0.96845968  0.99289781  0.47560003     0.33900
H964        H  0.03682299  0.97385369  0.51150325     0.44700
H965        H  0.99215788  0.03749576  0.53825473     0.38200
H966        H  0.03147840  0.04328490  0.46993166     0.34700
H967        H  0.01856725  0.93557018  0.47726216     0.26500
H968        H  0.07565252  0.03282160  0.50222037     0.32400
H969        H  0.05413742  0.06477625  0.50922191     0.38400
H970        H  0.97252058  0.94249495  0.48638814     0.32800
H971        H  0.94848889  0.98123702  0.51656926     0.31700
H972        H  0.93465566  0.03290164  0.52359909     0.33400
H973        H  0.99164453  0.07618751  0.53222756     0.32300
H974        H  0.00502877  0.94879098  0.52538625     0.36300
H975        H  0.02786386  0.97476517  0.56355651     0.29100
H976        H  0.99633507  0.03992402  0.42548928     0.33300
H977        H  0.01190208  0.09182162  0.49113165     0.36200
H978        H  0.93316516  0.99774721  0.51117631     0.28800
H979        H  0.03514997  0.99452767  0.57244941     0.41600
H980        H  0.05529783  0.97689836  0.46092924     0.31700
H981        H  0.02929242  0.95228801  0.46605104     0.39300
H982        H  0.97697418  0.06822437  0.51695213     0.31200
H983        H  0.08548932  0.02117504  0.48528234     0.31200
H984        H  0.00777594  0.05369601  0.43956374     0.31500
C985        C  0.33328165  0.90469317  0.41623781     0.80700
N986        N  0.32961635  0.89308955  0.40084072    -0.77600
C987        C  0.31336041  0.88180690  0.40050387     0.83100
N988        N  0.30057132  0.88226066  0.41551712    -0.77600
C989        C  0.30406837  0.89364591  0.43105510     0.83200
N990        N  0.32034285  0.90490128  0.43121065    -0.79300
C991        C  0.18677298  0.90942260  0.56401807     0.80700
N992        N  0.19889043  0.91114186  0.54853284    -0.77600
C993        C  0.21568664  0.90028861  0.54751488     0.83100
N994        N  0.22003902  0.88733789  0.56186950    -0.77600
C995        C  0.20804828  0.88525709  0.57737159     0.83200
N996        N  0.19123456  0.89622838  0.57828350    -0.79300
C997        C  0.44952827  0.32042457  0.88923394     0.80700
N998        N  0.46340545  0.30592824  0.88913787    -0.77600
C999        C  0.46288554  0.29144992  0.87583883     0.83100
N1000       N  0.44820321  0.29146625  0.86264214    -0.77600
C1001       C  0.43409549  0.30579997  0.86249591     0.83200
N1002       N  0.43494704  0.32044011  0.87580878    -0.79300
C1003       C  0.58938843  0.17122648  0.83832014     0.80700
N1004       N  0.57598291  0.18540987  0.84296329    -0.77600
C1005       C  0.56144751  0.18179300  0.85583644     0.83100
N1006       N  0.56010496  0.16361027  0.86384293    -0.77600
C1007       C  0.57332178  0.14927244  0.85929131     0.83200
N1008       N  0.58818358  0.15323897  0.84687213    -0.79300
C1009       C  0.07065126  0.16378642  0.63484471     0.80700
N1010       N  0.08509448  0.16467923  0.64831000    -0.77600
C1011       C  0.08734430  0.18116629  0.65899069     0.83100
N1012       N  0.07469358  0.19656891  0.65636148    -0.77600
C1013       C  0.06019871  0.19593600  0.64306588     0.83200
N1014       N  0.05820623  0.17938813  0.63247749    -0.79300
C1015       C  0.95268996  0.33809033  0.61124990     0.80700
N1016       N  0.96617648  0.32336111  0.61332999    -0.77600
C1017       C  0.96248538  0.30748084  0.62464466     0.83100
N1018       N  0.94526360  0.30664555  0.63444931    -0.77600
C1019       C  0.93177026  0.32146823  0.63285758     0.83200
N1020       N  0.93551043  0.33712549  0.62114630    -0.79300
C1021       C  0.68174585  0.34669061  0.06654791     0.80700
N1022       N  0.69592710  0.34969113  0.05310918    -0.77600
C1023       C  0.69192081  0.35923835  0.03628341     0.83100
N1024       N  0.67348049  0.36609084  0.03280848    -0.77600
C1025       C  0.65898748  0.36319147  0.04597834     0.83200
N1026       N  0.66326493  0.35369045  0.06286926    -0.79300
C1027       C  0.81762174  0.40157427  0.91926073     0.80700
N1028       N  0.80573809  0.39573320  0.93387993    -0.77600
C1029       C  0.79024435  0.38404153  0.93047257     0.83100
N1030       N  0.78658321  0.37820805  0.91213251    -0.77600
C1031       C  0.79870227  0.38340872  0.89737484     0.83200
N1032       N  0.81416850  0.39516031  0.90108598    -0.79300
Zr1033     Zr  0.74943187  0.22236169  0.74666913     2.17500
O1034       O  0.74805769  0.19584866  0.77060081    -0.50900
O1035       O  0.74260488  0.19897676  0.72120733    -0.74100
O1036       O  0.71633566  0.21515536  0.75738861    -0.80900
O1037       O  0.80537388  0.22040792  0.74723086    -0.82600
O1038       O  0.69693957  0.24241363  0.75432902    -0.78200
O1039       O  0.77859623  0.20322323  0.75575937    -0.89900
O1040       O  0.73864928  0.21688712  0.69360028    -0.75800
O1041       O  0.72853079  0.24102286  0.72564486    -0.85300
O1042       O  0.76915846  0.23150082  0.71972214    -0.85000
O1043       O  0.73768658  0.24987453  0.76524431    -0.71800
O1044       O  0.77524558  0.24155008  0.75971761    -0.83900
Zr1045     Zr  0.76326539  0.29812717  0.72961148     2.26400
Zr1046     Zr  0.71770815  0.26909959  0.74354029     2.06300
Zr1047     Zr  0.79452175  0.25127271  0.73266366     2.10000
Zr1048     Zr  0.74832459  0.25052281  0.69907955     1.78800
O1049       O  0.82409378  0.25820662  0.75077591    -0.92700
O1050       O  0.71677109  0.25359658  0.68279137    -0.40500
O1051       O  0.77424338  0.27027559  0.71117376    -0.77100
O1052       O  0.73713627  0.27904797  0.71629259    -0.95800
O1053       O  0.74338043  0.28860478  0.75634672    -0.89100
O1054       O  0.78373194  0.27914503  0.75068322    -0.92000
C1055       C  0.73837391  0.20071971  0.70323913     1.01800
C1056       C  0.79729209  0.20533799  0.75487875     1.14700
C1057       C  0.69979283  0.22425559  0.75882715     1.05500
O1058       O  0.68867012  0.27004024  0.72321087    -0.94100
O1059       O  0.70708937  0.30252132  0.73626793    -0.89900
O1060       O  0.73408780  0.31942882  0.72736769    -0.83000
C1061       C  0.71556107  0.31820105  0.73048553     1.12100
O1062       O  0.76134353  0.24795786  0.80547511    -0.96100
Zr1063     Zr  0.76374938  0.26942286  0.77720927     1.88900
O1064       O  0.77305330  0.32033817  0.75537804    -0.72800
O1065       O  0.70050852  0.28060322  0.77223680    -0.52000
O1066       O  0.74005964  0.28288933  0.80011353    -0.96700
O1067       O  0.79479421  0.26558866  0.79429851    -0.53900
O1068       O  0.77397815  0.30235888  0.78320757    -0.73300
C1069       C  0.77605092  0.31831412  0.77359756     0.99100
O1070       O  0.76581999  0.32482292  0.70607524    -0.62100
O1071       O  0.81236027  0.23434500  0.70710243    -0.56900
O1072       O  0.79510202  0.30434697  0.71406056    -0.93600
O1073       O  0.81344436  0.27626983  0.71663070    -0.92000
O1074       O  0.77235187  0.23880990  0.67565624    -0.92400
O1075       O  0.74985881  0.26985541  0.66937905    -0.91100
C1076       C  0.81093009  0.29418293  0.71117638     1.17900
H1077       H  0.77464366  0.22014718  0.71327402     0.33900
H1078       H  0.72939706  0.28716253  0.70760783     0.44700
H1079       H  0.79489737  0.28658842  0.75476033     0.38200
H1080       H  0.73005355  0.24535121  0.77611591     0.34700
H1081       H  0.70842865  0.24360064  0.68904766     0.26500
H1082       H  0.68647747  0.27850432  0.76946077     0.32400
H1083       H  0.73670107  0.29620499  0.79513030     0.38400
H1084       H  0.76501883  0.22996905  0.66711069     0.32800
H1085       H  0.80983761  0.24237662  0.69535515     0.31700
H1086       H  0.83503973  0.25429770  0.74216489     0.33400
H1087       H  0.79342944  0.27403411  0.80579522     0.32300
H1088       H  0.74632259  0.28340648  0.67330946     0.36300
H1089       H  0.75472900  0.32331598  0.69705473     0.29100
H1090       H  0.73886305  0.18609787  0.76544099     0.33300
H1091       H  0.76278214  0.25659051  0.81679253     0.36200
H1092       H  0.82635626  0.23644504  0.71004079     0.28800
H1093       H  0.76301386  0.33713991  0.71314686     0.41600
H1094       H  0.68830836  0.25688465  0.71726648     0.31700
H1095       H  0.71108455  0.26633761  0.68697503     0.39300
H1096       H  0.80453131  0.27236678  0.78610592     0.31200
H1097       H  0.70375603  0.27080295  0.78242546     0.31200
H1098       H  0.74138842  0.20152925  0.78201815     0.31500
C1099       C  0.09872553  0.80545266  0.87673790     0.80700
N1100       N  0.09588793  0.82366774  0.88436320    -0.77600
C1101       C  0.07815553  0.82879912  0.89207798     0.83100
N1102       N  0.06318633  0.81576345  0.89170361    -0.77600
C1103       C  0.06606217  0.79761602  0.88402523     0.83200
N1104       N  0.08370562  0.79270997  0.87642109    -0.79300
C1105       C  0.95714832  0.65771994  0.87082860     0.80700
N1106       N  0.97050555  0.67216871  0.87312233    -0.77600
C1107       C  0.96678878  0.69069326  0.86627533     0.83100
N1108       N  0.94973172  0.69445907  0.85675338    -0.77600
C1109       C  0.93641001  0.68011408  0.85420367     0.83200
N1110       N  0.94016692  0.66185388  0.86140537    -0.79300
C1111       C  0.88096778  0.09144561  0.80398314     0.80700
N1112       N  0.89400659  0.09117629  0.81881506    -0.77600
C1113       C  0.90494604  0.07468264  0.82258349     0.83100
N1114       N  0.90269131  0.05840383  0.81164803    -0.77600
C1115       C  0.88954125  0.05850098  0.79701241     0.83200
N1116       N  0.87900014  0.07508133  0.79315224    -0.79300
C1117       C  0.89017035  0.94600348  0.66396946     0.80700
N1118       N  0.88916458  0.95936965  0.67831705    -0.77600
C1119       C  0.87845940  0.95605235  0.69441855     0.83100
N1120       N  0.86910966  0.93863494  0.69639670    -0.77600
C1121       C  0.87027354  0.92476815  0.68237106     0.83200
N1122       N  0.88077003  0.92861543  0.66603200    -0.79300
Zr1123     Zr  0.76819818  0.76146889  0.71198097     2.17500
O1124       O  0.76087690  0.75937177  0.67760375    -0.50900
O1125       O  0.78897701  0.78949031  0.70482968    -0.74100
O1126       O  0.74120262  0.78301457  0.70142327    -0.80900
O1127       O  0.80276750  0.71681532  0.70707136    -0.82600
O1128       O  0.72351033  0.79176971  0.72777867    -0.78200
O1129       O  0.78797204  0.74166914  0.69018595    -0.89900
O1130       O  0.80493276  0.79792742  0.73220958    -0.75800
O1131       O  0.76677863  0.78316708  0.73867363    -0.85300
O1132       O  0.79671665  0.75431230  0.73075251    -0.85000
O1133       O  0.73832899  0.75303991  0.72838072    -0.71800
O1134       O  0.76632967  0.72734089  0.72113011    -0.83900
Zr1135     Zr  0.76345335  0.73440448  0.78471743     2.26400
Zr1136     Zr  0.73738515  0.77467682  0.75545077     2.06300
Zr1137     Zr  0.79440933  0.72063432  0.74074834     2.10000
Zr1138     Zr  0.79505105  0.77564134  0.75759614     1.78800
O1139       O  0.79134811  0.68530215  0.73663822    -0.92700
O1140       O  0.79002850  0.80818129  0.77131399    -0.40500
O1141       O  0.79329030  0.74207947  0.76784852    -0.77100
O1142       O  0.76579223  0.76839695  0.77481529    -0.95800
O1143       O  0.73506189  0.74102617  0.76560045    -0.89100
O1144       O  0.76527181  0.71235675  0.75814746    -0.92000
C1145       C  0.80073285  0.80028271  0.71434202     1.01800
C1146       C  0.79899346  0.72626861  0.69138549     1.14700
C1147       C  0.72690292  0.79220880  0.70961117     1.05500
O1148       O  0.73832288  0.80954734  0.76294768    -0.94100
O1149       O  0.72853138  0.77878598  0.78892105    -0.89900
O1150       O  0.74697963  0.75724162  0.80674564    -0.83000
C1151       C  0.73477064  0.77172858  0.80501907     1.12100
O1152       O  0.72285181  0.71303218  0.70730501    -0.96100
Zr1153     Zr  0.73727096  0.71950761  0.73872947     1.88900
O1154       O  0.74080385  0.70751825  0.79198455    -0.72800
O1155       O  0.70180105  0.77406488  0.75816937    -0.52000
O1156       O  0.70192883  0.72481647  0.73768582    -0.96700
O1157       O  0.74342159  0.68582615  0.72829398    -0.53900
O1158       O  0.72448299  0.69990959  0.76481174    -0.73300
C1159       C  0.72780242  0.69776176  0.78282950     0.99100
O1160       O  0.76643466  0.73007384  0.81961511    -0.62100
O1161       O  0.82952734  0.71918589  0.73425131    -0.56900
O1162       O  0.79421948  0.71837264  0.79500881    -0.93600
O1163       O  0.81145546  0.70802094  0.76890338    -0.92000
O1164       O  0.83046457  0.77157787  0.75527414    -0.92400
O1165       O  0.81049028  0.77937807  0.78898222    -0.91100
C1166       C  0.80905126  0.70970593  0.78713292     1.17900
H1167       H  0.80851565  0.75640731  0.72333569     0.33900
H1168       H  0.76618316  0.77720709  0.78556179     0.44700
H1169       H  0.76574290  0.69884743  0.76255462     0.38200
H1170       H  0.72705328  0.75503146  0.72018482     0.34700
H1171       H  0.80260364  0.81494539  0.76920210     0.26500
H1172       H  0.69771110  0.78806387  0.75903669     0.32400
H1173       H  0.69903567  0.73357608  0.74867563     0.38400
H1174       H  0.83319934  0.75835322  0.76080597     0.32800
H1175       H  0.83578962  0.72533799  0.74550208     0.31700
H1176       H  0.80482744  0.68053004  0.73389399     0.33400
H1177       H  0.74802661  0.67858080  0.73991769     0.32300
H1178       H  0.80848395  0.76664652  0.79569270     0.36300
H1179       H  0.76775720  0.71572250  0.82186409     0.29100
H1180       H  0.76164236  0.77295309  0.67240286     0.33300
H1181       H  0.71392524  0.70186177  0.70936695     0.36200
H1182       H  0.83320660  0.70507975  0.73527912     0.28800
H1183       H  0.77930030  0.73548030  0.82320524     0.41600
H1184       H  0.74491147  0.81571674  0.75174134     0.31700
H1185       H  0.78076226  0.81493044  0.76241053     0.39300
H1186       H  0.75510250  0.68661670  0.71984970     0.31200
H1187       H  0.69714114  0.76988446  0.74535383     0.31200
H1188       H  0.74687600  0.75589397  0.67674539     0.31500
Zr1189     Zr  0.00591219  0.49953559  0.03203583     2.17500
O1190       O  0.01380601  0.52078546  0.05904761    -0.50900
O1191       O  0.01419863  0.47168700  0.05334739    -0.74100
O1192       O  0.97825885  0.50638636  0.05362606    -0.80900
O1193       O  0.05452471  0.51405670  0.00814529    -0.82600
O1194       O  0.94984549  0.49800475  0.03907432    -0.78200
O1195       O  0.03780097  0.51433370  0.03650158    -0.89900
O1196       O  0.01482124  0.44424585  0.03516297    -0.75800
O1197       O  0.98655707  0.47217293  0.02349856    -0.85300
O1198       O  0.02603854  0.47950399  0.01167994    -0.85000
O1199       O  0.97821381  0.51397323  0.01531572    -0.71800
O1200       O  0.01457738  0.51969121  0.00469233    -0.83900
Zr1201     Zr  0.98640772  0.48536878  0.95866991     2.26400
Zr1202     Zr  0.95887980  0.48621978  0.00693245     2.06300
Zr1203     Zr  0.03392086  0.49922697  0.98403348     2.10000
Zr1204     Zr  0.00642544  0.45266388  0.00248842     1.78800
O1205       O  0.04892519  0.52808613  0.96955970    -0.92700
O1206       O  0.98468972  0.42567308  0.01038225    -0.40500
O1207       O  0.01467977  0.47184936  0.97479807    -0.77100
O1208       O  0.97812688  0.46531053  0.98616543    -0.95800
O1209       O  0.96681701  0.50582349  0.97912598    -0.89100
O1210       O  0.00631324  0.51249302  0.96706358    -0.92000
C1211       C  0.01654587  0.45304531  0.05128484     1.01800
C1212       C  0.05291207  0.51814840  0.02610760     1.14700
C1213       C  0.95950342  0.50500755  0.05328330     1.05500
O1214       O  0.94461851  0.45837552  0.02389429    -0.94100
O1215       O  0.93772928  0.47187870  0.98293518    -0.89900
O1216       O  0.95315572  0.47335413  0.95381226    -0.83000
C1217       C  0.93858531  0.46884897  0.96470284     1.12100
O1218       O  0.98800522  0.55971875  0.01034699    -0.96100
Zr1219     Zr  0.98687252  0.53270732  0.98750174     1.88900
O1220       O  0.97675214  0.51224808  0.93710790    -0.72800
O1221       O  0.92772711  0.50401275  0.00448954    -0.52000
O1222       O  0.95505145  0.54914611  0.99049951    -0.96700
O1223       O  0.00904801  0.55824028  0.97640700    -0.53900
O1224       O  0.97621033  0.54003828  0.95513094    -0.73300
C1225       C  0.97408006  0.53079928  0.93931464     0.99100
O1226       O  0.98433212  0.46076415  0.93337555    -0.62100
O1227       O  0.06417466  0.47977466  0.98457599    -0.56900
O1228       O  0.01357162  0.48133681  0.93591538    -0.93600
O1229       O  0.04152637  0.49049840  0.95092212    -0.92000
O1230       O  0.03921137  0.43833291  0.99946924    -0.92400
O1231       O  0.00831577  0.42550356  0.97989916    -0.91100
C1232       C  0.03212464  0.48445163  0.93615901     1.17900
H1233       H  0.03776039  0.47507782  0.01830979     0.33900
H1234       H  0.97074973  0.45407000  0.98218411     0.44700
H1235       H  0.01063755  0.51957030  0.95572213     0.38200
H1236       H  0.97101464  0.52323399  0.02315697     0.34700
H1237       H  0.99319035  0.41567488  0.01680004     0.26500
H1238       H  0.91896256  0.49730823  0.01377189     0.32400
H1239       H  0.95558195  0.56053214  0.98150837     0.38400
H1240       H  0.04038391  0.42877996  0.01028195     0.32800
H1241       H  0.06101381  0.46756249  0.97766254     0.31700
H1242       H  0.06315657  0.52621004  0.97175097     0.33400
H1243       H  0.01186952  0.55520761  0.96272883     0.32300
H1244       H  0.00213061  0.43074949  0.96796970     0.36300
H1245       H  0.97816437  0.44915974  0.93945130     0.29100
H1246       H  0.00998385  0.51356166  0.07090287     0.33300
H1247       H  0.98462518  0.57174100  0.00282895     0.36200
H1248       H  0.07316274  0.48683167  0.97577857     0.28800
H1249       H  0.97454509  0.46596567  0.92403665     0.41600
H1250       H  0.95141392  0.45770790  0.03649479     0.31700
H1251       H  0.97619916  0.43080214  0.02084000     0.39300
H1252       H  0.02151498  0.55536044  0.98320903     0.31200
H1253       H  0.93016552  0.51698985  0.01028523     0.31200
H1254       H  0.00460437  0.53216597  0.05817099     0.31500
C1255       C  0.37689541  0.08750819  0.70466147     0.80700
N1256       N  0.38690314  0.08802821  0.68764834    -0.77600
C1257       C  0.39821442  0.07239258  0.68223373     0.83100
N1258       N  0.39971774  0.05637549  0.69390608    -0.77600
C1259       C  0.38986894  0.05566115  0.71087569     0.83200
N1260       N  0.37865171  0.07133122  0.71625310    -0.79300
C1261       C  0.41567693  0.92702942  0.83024125     0.80700
N1262       N  0.41534004  0.94066889  0.81578667    -0.77600
C1263       C  0.40295246  0.93904157  0.80060035     0.83100
N1264       N  0.39055549  0.92368901  0.80010880    -0.77600
C1265       C  0.39053056  0.91002406  0.81450810     0.83200
N1266       N  0.40309883  0.91176424  0.82954238    -0.79300
C1267       C  0.16297324  0.60187504  0.07196422     0.80700
N1268       N  0.16645432  0.60934353  0.08973954    -0.77600
C1269       C  0.18274590  0.62010979  0.09278199     0.83100
N1270       N  0.19533289  0.62335512  0.07795804    -0.77600
C1271       C  0.19221537  0.61584049  0.06016864     0.83200
N1272       N  0.17592981  0.60502517  0.05736647    -0.79300
C1273       C  0.32963506  0.63121929  0.95016777     0.80700
N1274       N  0.32738409  0.64241757  0.93393640    -0.77600
C1275       C  0.31023506  0.65222980  0.93033250     0.83100
N1276       N  0.29524821  0.65112958  0.94323351    -0.77600
C1277       C  0.29734543  0.64033902  0.95969191     0.83200
N1278       N  0.31443118  0.63036937  0.96283815    -0.79300
Zr1279     Zr  0.26208992  0.76863205  0.78253425     2.17500
O1280       O  0.25869325  0.79124761  0.80951542    -0.50900
O1281       O  0.27392785  0.74514693  0.80698564    -0.74100
O1282       O  0.22994742  0.76768471  0.79796661    -0.80900
O1283       O  0.31064030  0.79195094  0.76798844    -0.82600
O1284       O  0.20773702  0.75517572  0.77749005    -0.78200
O1285       O  0.28680463  0.79263226  0.79100892    -0.89900
O1286       O  0.27936146  0.71588553  0.79250503    -0.75800
O1287       O  0.24839570  0.73872085  0.77156996    -0.85300
O1288       O  0.28880300  0.75034825  0.76914786    -0.85000
O1289       O  0.23751291  0.77817667  0.75914800    -0.71800
O1290       O  0.27433182  0.78830602  0.75638442    -0.83900
Zr1291     Zr  0.26321782  0.74840324  0.70766887     2.26400
Zr1292     Zr  0.22467018  0.74791843  0.74745985     2.06300
Zr1293     Zr  0.30066400  0.76966568  0.74270138     2.10000
Zr1294     Zr  0.27504052  0.72062265  0.75803052     1.78800
O1295       O  0.31766816  0.79653387  0.72673905    -0.92700
O1296       O  0.25466300  0.69255180  0.76585262    -0.40500
O1297       O  0.28735780  0.73954837  0.73156181    -0.77100
O1298       O  0.25088416  0.72847584  0.73399233    -0.95800
O1299       O  0.23680065  0.76712969  0.72106309    -0.89100
O1300       O  0.27684047  0.77850762  0.71862355    -0.92000
C1301       C  0.27888322  0.72685931  0.80745441     1.01800
C1302       C  0.30307977  0.79842003  0.78373181     1.14700
C1303       C  0.21245927  0.76246581  0.79379105     1.05500
O1304       O  0.20620357  0.71934902  0.75777972    -0.94100
O1305       O  0.21140093  0.73001821  0.72039813    -0.89900
O1306       O  0.23585414  0.72721039  0.69823683    -0.83000
C1307       C  0.21856035  0.72330596  0.70460496     1.12100
O1308       O  0.24220622  0.82508884  0.75262223    -0.96100
Zr1309     Zr  0.25037850  0.79681566  0.73262013     1.88900
O1310       O  0.25515997  0.77398958  0.68346946    -0.72800
O1311       O  0.19587730  0.76686865  0.73731430    -0.52000
O1312       O  0.21653270  0.80769713  0.72786040    -0.96700
O1313       O  0.27108833  0.82505410  0.72611240    -0.53900
O1314       O  0.24726710  0.80257540  0.69846437    -0.73300
C1315       C  0.24970414  0.79218348  0.68337105     0.99100
O1316       O  0.26878328  0.73273584  0.67654590    -0.62100
O1317       O  0.33092696  0.75610440  0.75629053    -0.56900
O1318       O  0.29669930  0.73929907  0.69744523    -0.93600
O1319       O  0.31865636  0.75552416  0.71587799    -0.92000
O1320       O  0.30903026  0.70964396  0.76112535    -0.92400
O1321       O  0.28289561  0.69173576  0.73883527    -0.91100
C1322       C  0.31428052  0.74415543  0.70192644     1.17900
H1323       H  0.29910951  0.74798025  0.77844835     0.33900
H1324       H  0.24621911  0.71592715  0.72974424     0.44700
H1325       H  0.28296609  0.78565159  0.70817829     0.38200
H1326       H  0.22732285  0.78605840  0.76509257     0.34700
H1327       H  0.26341967  0.68335216  0.77303592     0.26500
H1328       H  0.18470988  0.75822004  0.74023184     0.32400
H1329       H  0.21184729  0.80013926  0.71668719     0.38400
H1330       H  0.30970616  0.70226697  0.77348540     0.32800
H1331       H  0.33278393  0.74318626  0.75002788     0.31700
H1332       H  0.33021536  0.79760710  0.73376024     0.33400
H1333       H  0.26809695  0.82937371  0.71274863     0.32300
H1334       H  0.27739004  0.69476437  0.72592219     0.36300
H1335       H  0.26739171  0.71845642  0.67896295     0.29100
H1336       H  0.25406042  0.78334165  0.82062915     0.33300
H1337       H  0.23789079  0.83560824  0.74354261     0.36200
H1338       H  0.34139736  0.76438271  0.75080062     0.28800
H1339       H  0.25737541  0.73651467  0.66844210     0.41600
H1340       H  0.21457403  0.70792686  0.75422788     0.31700
H1341       H  0.24532966  0.69749121  0.77569524     0.39300
H1342       H  0.28456562  0.81954956  0.72542099     0.31200
H1343       H  0.19465433  0.77761478  0.74678898     0.31200
H1344       H  0.24753645  0.80008865  0.80614324     0.31500
C1345       C  0.29290533  0.66752674  0.88029572    -0.11400
C1346       C  0.30237666  0.68550583  0.87771934     0.11200
C1347       C  0.31470645  0.69254934  0.89250977    -0.03200
C1348       C  0.31717974  0.68110256  0.90944606    -0.06000
C1349       C  0.30752236  0.66321680  0.91200521    -0.16700
C1350       C  0.29544742  0.65609823  0.89713625     0.02200
C1351       C  0.29783676  0.69702178  0.85984858     0.12100
C1352       C  0.32509650  0.71204367  0.89047477     0.62800
H1353       H  0.32644638  0.68615731  0.92099191     0.12200
C1354       C  0.28562219  0.63630653  0.89893022     0.54900
H1355       H  0.28330436  0.66258869  0.86896594     0.08000
C1356       C  0.30628316  0.69234728  0.84176921    -0.05800
C1357       C  0.30001497  0.70292434  0.82529339    -0.06600
C1358       C  0.28524780  0.71759972  0.82612869    -0.16200
C1359       C  0.27667338  0.72210545  0.84432359    -0.01800
C1360       C  0.28319734  0.71166770  0.86084136    -0.09300
C1361       C  0.32141092  0.67585971  0.83974638     0.65000
H1362       H  0.30646554  0.69951192  0.81141927     0.10400
C1363       C  0.26034425  0.73734082  0.84644133     0.63400
H1364       H  0.27665045  0.71460555  0.87478780     0.07800
F1365       F  0.27577066  0.63147377  0.88223556    -0.19700
F1366       F  0.27223567  0.63665034  0.91391683    -0.15900
F1367       F  0.29961457  0.62180980  0.90251033    -0.19400
F1368       F  0.31152530  0.72717493  0.88827195    -0.22800
F1369       F  0.33730292  0.71167045  0.87454736    -0.24300
F1370       F  0.33636559  0.71602855  0.90652029    -0.18300
F1371       F  0.25258197  0.73744812  0.86491984    -0.20700
F1372       F  0.24529689  0.73340316  0.83378011    -0.21900
F1373       F  0.26757390  0.75583409  0.84265622    -0.19100
F1374       F  0.32876713  0.67473617  0.82114467    -0.19200
F1375       F  0.31296551  0.65805120  0.84420716    -0.23000
F1376       F  0.33693814  0.67885155  0.85207296    -0.24600
C1377       C  0.21840287  0.62100423  0.01106082    -0.11400
C1378       C  0.23672940  0.62756328  0.01697710     0.11200
C1379       C  0.24031991  0.63067624  0.03675028    -0.03200
C1380       C  0.22552511  0.62619041  0.05013731    -0.06000
C1381       C  0.20698022  0.61938045  0.04445837    -0.16700
C1382       C  0.20329190  0.61696623  0.02434474     0.02200
C1383       C  0.25201135  0.63067547  0.00203374     0.12100
C1384       C  0.25956884  0.63907154  0.04364019     0.62800
H1385       H  0.22846142  0.62819597  0.06531196     0.12200
C1386       C  0.18355042  0.61087247  0.01651426     0.54900
H1387       H  0.21610891  0.61904859  0.99574734     0.08000
C1388       C  0.26404459  0.61500390  0.99550556    -0.05800
C1389       C  0.27857363  0.61897279  0.98169842    -0.06600
C1390       C  0.28091416  0.63783772  0.97361869    -0.16200
C1391       C  0.26821980  0.65340672  0.97960168    -0.01800
C1392       C  0.25404883  0.64950148  0.99392995    -0.09300
C1393       C  0.26113705  0.59406254  0.00267067     0.65000
H1394       H  0.28803487  0.60712658  0.97674131     0.10400
C1395       C  0.26966435  0.67405663  0.97125587     0.63400
H1396       H  0.24428148  0.66109973  0.99889032     0.07800
F1397       F  0.17938783  0.59193194  0.02247156    -0.19700
F1398       F  0.18310510  0.61117516  0.99654146    -0.15900
F1399       F  0.16919795  0.62380165  0.02290593    -0.19400
F1400       F  0.26174740  0.65778413  0.03607177    -0.22800
F1401       F  0.27511867  0.62735957  0.03769069    -0.24300
F1402       F  0.26032301  0.64030988  0.06355787    -0.18300
F1403       F  0.26417959  0.67405646  0.95206476    -0.20700
F1404       F  0.28866466  0.68062369  0.97280433    -0.21900
F1405       F  0.25750405  0.68725019  0.98080407    -0.19100
F1406       F  0.27519002  0.58125087  0.99536440    -0.19200
F1407       F  0.24296013  0.58766836  0.99690825    -0.23000
F1408       F  0.26219233  0.59319579  0.02257053    -0.24600
C1409       C  0.35153101  0.87177828  0.82489344    -0.11400
C1410       C  0.35199468  0.86125714  0.80758422     0.11200
C1411       C  0.36467269  0.86715464  0.79248164    -0.03200
C1412       C  0.37754296  0.88266234  0.79575133    -0.06000
C1413       C  0.37736846  0.89304278  0.81313469    -0.16700
C1414       C  0.36378622  0.88797476  0.82781200     0.02200
C1415       C  0.33820194  0.84485817  0.80499129     0.12100
C1416       C  0.36390110  0.85778125  0.77267373     0.62800
H1417       H  0.38759764  0.88717552  0.78449839     0.12200
C1418       C  0.36134142  0.90032381  0.84582976     0.54900
H1419       H  0.34118305  0.86740558  0.83593499     0.08000
C1420       C  0.34364321  0.82508284  0.80900311    -0.05800
C1421       C  0.33135923  0.81004113  0.80258496    -0.06600
C1422       C  0.31351641  0.81441557  0.79338139    -0.16200
C1423       C  0.30705996  0.83422979  0.79153427    -0.01800
C1424       C  0.31970821  0.84922352  0.79720144    -0.09300
C1425       C  0.36236295  0.82003165  0.81986696     0.65000
H1426       H  0.33581864  0.79476880  0.80424072     0.10400
C1427       C  0.28715435  0.83945173  0.78307676     0.63400
H1428       H  0.31559924  0.86451380  0.79493489     0.07800
F1429       F  0.34573520  0.89419055  0.85703853    -0.19700
F1430       F  0.35789817  0.91976165  0.84063994    -0.15900
F1431       F  0.37804396  0.89902692  0.85699255    -0.19400
F1432       F  0.34563167  0.86118648  0.76463498    -0.22800
F1433       F  0.36725438  0.83774624  0.77410059    -0.24300
F1434       F  0.37777977  0.86546938  0.76024037    -0.18300
F1435       F  0.28395333  0.85958231  0.78208080    -0.20700
F1436       F  0.27264236  0.83145264  0.79451470    -0.21900
F1437       F  0.28575163  0.83206688  0.76464230    -0.19100
F1438       F  0.36407647  0.80006500  0.82366418    -0.19200
F1439       F  0.36238694  0.82973421  0.83731123    -0.23000
F1440       F  0.37849754  0.82569842  0.80923782    -0.24600
C1441       C  0.39800397  0.96791515  0.75315077    -0.11400
C1442       C  0.39981903  0.98716705  0.75986440     0.11200
C1443       C  0.40254438  0.99056249  0.77975418    -0.03200
C1444       C  0.40393459  0.97433235  0.79234008    -0.06000
C1445       C  0.40188255  0.95497193  0.78582300    -0.16700
C1446       C  0.39880676  0.95160698  0.76583507     0.02200
C1447       C  0.39744721  0.00373111  0.74602496     0.12100
C1448       C  0.40335038  0.01129569  0.78771399     0.62800
H1449       H  0.40598527  0.97672967  0.80762048     0.12200
C1450       C  0.39637625  0.93108337  0.75778305     0.54900
H1451       H  0.39548274  0.96584382  0.73788628     0.08000
C1452       C  0.41350609  0.01177894  0.73595834    -0.05800
C1453       C  0.41040467  0.02899788  0.72495174    -0.06600
C1454       C  0.39174272  0.03790005  0.72328969    -0.16200
C1455       C  0.37542407  0.02893649  0.73231271    -0.01800
C1456       C  0.37866392  0.01198123  0.74368149    -0.09300
C1457       C  0.43362889  0.00191632  0.73643979     0.65000
H1458       H  0.42260226  0.03565187  0.71746390     0.10400
C1459       C  0.35463854  0.03677635  0.72962428     0.63400
H1460       H  0.36658109  0.00520508  0.75125542     0.07800
F1461       F  0.39680933  0.93111170  0.73780895    -0.19700
F1462       F  0.37854001  0.92365966  0.76358250    -0.15900
F1463       F  0.41136330  0.91879887  0.76424280    -0.19400
F1464       F  0.38583231  0.02109551  0.78410529    -0.22800
F1465       F  0.41839424  0.02152916  0.77908697    -0.24300
F1466       F  0.40644503  0.01126598  0.80744328    -0.18300
F1467       F  0.34092291  0.02390655  0.73696486    -0.20700
F1468       F  0.35075627  0.03948350  0.71018395    -0.21900
F1469       F  0.35232010  0.05445110  0.73910177    -0.19100
F1470       F  0.44723962  0.01235720  0.72581565    -0.19200
F1471       F  0.43245958  0.98331042  0.72871841    -0.23000
F1472       F  0.44037085  0.00032727  0.75517741    -0.24600
C1473       C  0.11491211  0.58428023  0.05127316    -0.11400
C1474       C  0.11430558  0.56513187  0.05888920     0.11200
C1475       C  0.12899197  0.55862265  0.07197354    -0.03200
C1476       C  0.14437053  0.57140314  0.07637875    -0.06000
C1477       C  0.14522738  0.59038497  0.06835119    -0.16700
C1478       C  0.12988966  0.59726142  0.05613227     0.02200
C1479       C  0.09841779  0.55212344  0.05229712     0.12100
C1480       C  0.12809905  0.53849640  0.08157996     0.62800
H1481       H  0.15608496  0.56654815  0.08589448     0.12200
C1482       C  0.12824501  0.61806725  0.04808268     0.54900
H1483       H  0.10341557  0.58919236  0.04149632     0.08000
C1484       C  0.07856008  0.55469440  0.05790868    -0.05800
C1485       C  0.06426742  0.54327518  0.04898462    -0.06600
C1486       C  0.06916462  0.52882912  0.03535853    -0.16200
C1487       C  0.08918736  0.52533880  0.03079180    -0.01800
C1488       C  0.10334371  0.53766222  0.03874924    -0.09300
C1489       C  0.07146909  0.56913396  0.07306242     0.65000
H1490       H  0.04899773  0.54580293  0.05269443     0.10400
C1491       C  0.09584008  0.50841810  0.01810014     0.63400
H1492       H  0.11852912  0.53611530  0.03435811     0.07800
F1493       F  0.11018248  0.62605027  0.05304833    -0.19700
F1494       F  0.12960030  0.61752912  0.02818885    -0.15900
F1495       F  0.14243097  0.63044260  0.05496802    -0.19400
F1496       F  0.12884680  0.52385590  0.06791044    -0.22800
F1497       F  0.11081746  0.53705332  0.09191167    -0.24300
F1498       F  0.14355354  0.53529203  0.09416873    -0.18300
F1499       F  0.09196439  0.51287671  0.99898347    -0.20700
F1500       F  0.08622230  0.49142494  0.02338403    -0.21900
F1501       F  0.11575529  0.50469017  0.01990137    -0.19100
F1502       F  0.06034067  0.55925876  0.08664553    -0.19200
F1503       F  0.05985734  0.58347460  0.06433605    -0.23000
F1504       F  0.08650246  0.57816961  0.08269883    -0.24600
C1505       C  0.85015925  0.87726036  0.70416496    -0.11400
C1506       C  0.84092696  0.86908661  0.68819777     0.11200
C1507       C  0.84126834  0.87915110  0.67024732    -0.03200
C1508       C  0.85136524  0.89706916  0.66886270    -0.06000
C1509       C  0.86050010  0.90544103  0.68495823    -0.16700
C1510       C  0.86015866  0.89512454  0.70291728     0.02200
C1511       C  0.83034554  0.85037316  0.69141228     0.12100
C1512       C  0.83054138  0.87129220  0.65285558     0.62800
H1513       H  0.85161873  0.90504389  0.65527721     0.12200
C1514       C  0.87004548  0.90269887  0.72091962     0.54900
H1515       H  0.84922758  0.86949869  0.71785299     0.08000
C1516       C  0.84048698  0.83214453  0.69376391    -0.05800
C1517       C  0.83002811  0.81570166  0.70032494    -0.06600
C1518       C  0.80994772  0.81699133  0.70438701    -0.16200
C1519       C  0.79962844  0.83490566  0.70124573    -0.01800
C1520       C  0.81008059  0.85143329  0.69488063    -0.09300
C1521       C  0.86230115  0.83013680  0.68968452     0.65000
H1522       H  0.83756904  0.80181057  0.70296961     0.10400
C1523       C  0.77784946  0.83661338  0.70548610     0.63400
H1524       H  0.80267427  0.86555705  0.69338465     0.07800
F1525       F  0.88875171  0.90900448  0.71665739    -0.19700
F1526       F  0.87173597  0.88827364  0.73507580    -0.15900
F1527       F  0.85894887  0.91800413  0.72836680    -0.19400
F1528       F  0.81060707  0.87157606  0.65639737    -0.22800
F1529       F  0.83658564  0.85220172  0.64920284    -0.24300
F1530       F  0.83397163  0.88247784  0.63643846    -0.18300
F1531       F  0.77441555  0.83243009  0.72475948    -0.20700
F1532       F  0.76781114  0.82343519  0.69426511    -0.21900
F1533       F  0.77051014  0.85529386  0.70152235    -0.19100
F1534       F  0.86893566  0.81091189  0.69190429    -0.19200
F1535       F  0.87276178  0.84166659  0.70218138    -0.23000
F1536       F  0.86614988  0.83600912  0.67093620    -0.24600
C1537       C  0.88036306  0.00352370  0.72344595    -0.11400
C1538       C  0.88146518  0.99597945  0.74226819     0.11200
C1539       C  0.88003615  0.97551701  0.74552139    -0.03200
C1540       C  0.87908676  0.96306939  0.72947267    -0.06000
C1541       C  0.87860499  0.97046705  0.71045633    -0.16700
C1542       C  0.87872041  0.99119377  0.70737803     0.02200
C1543       C  0.88415027  0.01016958  0.75812285     0.12100
C1544       C  0.87925090  0.96692717  0.76580379     0.62800
H1545       H  0.87908001  0.94735365  0.73172003     0.12200
C1546       C  0.87663652  0.00053975  0.68745725     0.54900
H1547       H  0.88102787  0.01931611  0.72146943     0.08000
C1548       C  0.90282431  0.01764583  0.76265551    -0.05800
C1549       C  0.90406704  0.03274668  0.77630284    -0.06600
C1550       C  0.88722481  0.04101028  0.78478736    -0.16200
C1551       C  0.86860370  0.03308778  0.78070617    -0.01800
C1552       C  0.86742712  0.01764466  0.76742703    -0.09300
C1553       C  0.92119361  0.01062475  0.75222075     0.65000
H1554       H  0.91813419  0.03905672  0.77957154     0.10400
C1555       C  0.85001907  0.04095774  0.79016278     0.63400
H1556       H  0.85330129  0.01183656  0.76354445     0.07800
F1557       F  0.89352446  0.99740070  0.67681397    -0.19700
F1558       F  0.87348007  0.02066641  0.68847764    -0.15900
F1559       F  0.86082933  0.99261777  0.67798963    -0.19400
F1560       F  0.86249863  0.97368116  0.77500103    -0.22800
F1561       F  0.89545402  0.97249102  0.77621764    -0.24300
F1562       F  0.87884556  0.94657856  0.76570633    -0.18300
F1563       F  0.84519098  0.05921401  0.78246465    -0.20700
F1564       F  0.85274690  0.04257259  0.80985911    -0.21900
F1565       F  0.83435061  0.02867045  0.78723637    -0.19100
F1566       F  0.93799658  0.01770687  0.76067916    -0.19200
F1567       F  0.92063728  0.01714249  0.73327570    -0.23000
F1568       F  0.92245369  0.99032664  0.75251978    -0.24600
C1569       C  0.96718483  0.61465697  0.90518834    -0.11400
C1570       C  0.96267870  0.59872332  0.89339853     0.11200
C1571       C  0.95626551  0.60213838  0.87428475    -0.03200
C1572       C  0.95524794  0.62163321  0.86732972    -0.06000
C1573       C  0.96033911  0.63764776  0.87891489    -0.16700
C1574       C  0.96628351  0.63415789  0.89826965     0.02200
C1575       C  0.96520292  0.57862982  0.90159946     0.12100
C1576       C  0.95031262  0.58526609  0.86146928     0.62800
H1577       H  0.95029955  0.62455924  0.85273242     0.12200
C1578       C  0.97124678  0.65082939  0.91175085     0.54900
H1579       H  0.97172206  0.61158429  0.91989093     0.08000
C1580       C  0.98399388  0.56968572  0.90340278    -0.05800
C1581       C  0.98575133  0.55180471  0.91355481    -0.06600
C1582       C  0.96955145  0.54323114  0.92253379    -0.16200
C1583       C  0.95059483  0.55137207  0.91961023    -0.01800
C1584       C  0.94873550  0.56909898  0.90915395    -0.09300
C1585       C  0.00231025  0.57968263  0.89597766     0.65000
H1586       H  0.00014968  0.54547105  0.91634823     0.10400
C1587       C  0.93212430  0.54235199  0.92781830     0.63400
H1588       H  0.93440454  0.57603304  0.90765134     0.07800
F1589       F  0.98828513  0.65968119  0.90560909    -0.19700
F1590       F  0.97415432  0.64423328  0.93050088    -0.15900
F1591       F  0.95611048  0.66459036  0.91199544    -0.19400
F1592       F  0.93416732  0.57609192  0.86929953    -0.22800
F1593       F  0.96553699  0.57172086  0.85997280    -0.24300
F1594       F  0.94547001  0.59167342  0.84305175    -0.18300
F1595       F  0.92356653  0.55518774  0.94081726    -0.20700
F1596       F  0.93559482  0.52454601  0.93708972    -0.21900
F1597       F  0.91908459  0.53914678  0.91296942    -0.19100
F1598       F  0.01874378  0.56761050  0.89771684    -0.19200
F1599       F  0.00556299  0.59651171  0.90643919    -0.23000
F1600       F  0.00013499  0.58465727  0.87671793    -0.24600
C1601       C  0.89604358  0.69756267  0.81988050    -0.11400
C1602       C  0.87938378  0.69086671  0.82965195     0.11200
C1603       C  0.88148491  0.68022710  0.84715390    -0.03200
C1604       C  0.90038765  0.67749544  0.85484185    -0.06000
C1605       C  0.91711671  0.68450364  0.84528065    -0.16700
C1606       C  0.91501750  0.69441499  0.82729380     0.02200
C1607       C  0.85999746  0.69491874  0.82074398     0.12100
C1608       C  0.86397644  0.67112505  0.85720807     0.62800
H1609       H  0.90229478  0.66955544  0.86834256     0.12200
C1610       C  0.93262848  0.70081546  0.81550442     0.54900
H1611       H  0.89398861  0.70526817  0.80626893     0.08000
C1612       C  0.84994310  0.71304842  0.82335399    -0.05800
C1613       C  0.83248809  0.71660062  0.81307675    -0.06600
C1614       C  0.82540086  0.70304073  0.79972568    -0.16200
C1615       C  0.83528580  0.68469172  0.79744575    -0.01800
C1616       C  0.85242981  0.68091351  0.80819376    -0.09300
C1617       C  0.85812525  0.72892077  0.83621371     0.65000
H1618       H  0.82486735  0.73060178  0.81448950     0.10400
C1619       C  0.82784087  0.66913710  0.78382587     0.63400
H1620       H  0.86053707  0.66724280  0.80634786     0.07800
F1621       F  0.92723771  0.70770087  0.79738709    -0.19700
F1622       F  0.94539805  0.68504222  0.81305530    -0.15900
F1623       F  0.94219107  0.71575864  0.82476931    -0.19400
F1624       F  0.85643337  0.65658702  0.84571427    -0.22800
F1625       F  0.84954724  0.68516796  0.86049245    -0.24300
F1626       F  0.86905929  0.66275416  0.87481898    -0.18300
F1627       F  0.83773263  0.65137150  0.78630059    -0.20700
F1628       F  0.83045383  0.67513310  0.76490586    -0.21900
F1629       F  0.80815244  0.66601144  0.78722302    -0.19100
F1630       F  0.84570719  0.74516617  0.83719559    -0.19200
F1631       F  0.87593471  0.73505571  0.82901353    -0.23000
F1632       F  0.86080377  0.72172403  0.85473943    -0.24600
C1633       C  0.16307241  0.76512000  0.82038191    -0.11400
C1634       C  0.16698423  0.77950932  0.83409317     0.11200
C1635       C  0.18636038  0.78593387  0.83658080    -0.03200
C1636       C  0.20081138  0.77958364  0.82343998    -0.06000
C1637       C  0.19669968  0.76634395  0.80845457    -0.16700
C1638       C  0.17766114  0.75800596  0.80772509     0.02200
C1639       C  0.15035972  0.78740554  0.84567581     0.12100
C1640       C  0.19174692  0.79916448  0.85323157     0.62800
H1641       H  0.21542084  0.78536215  0.82465444     0.12200
C1642       C  0.17249658  0.74153762  0.79405551     0.54900
H1643       H  0.14823092  0.75980982  0.81940552     0.08000
C1644       C  0.13893358  0.80376700  0.83927386    -0.05800
C1645       C  0.12294051  0.81006448  0.85063978    -0.06600
C1646       C  0.11740570  0.79975774  0.86734620    -0.16200
C1647       C  0.12847844  0.78299958  0.87340139    -0.01800
C1648       C  0.14507196  0.77733075  0.86258258    -0.09300
C1649       C  0.14302301  0.81386331  0.82004842     0.65000
H1650       H  0.11394353  0.82247909  0.84600482     0.10400
C1651       C  0.12275417  0.77110537  0.89114599     0.63400
H1652       H  0.15374977  0.76456819  0.86687644     0.07800
F1653       F  0.15473425  0.73317482  0.79878490    -0.19700
F1654       F  0.18666595  0.72679435  0.79500280    -0.15900
F1655       F  0.17106153  0.74874570  0.77539489    -0.19400
F1656       F  0.18724226  0.78994215  0.87050422    -0.22800
F1657       F  0.18144227  0.81676433  0.85206276    -0.24300
F1658       F  0.21154347  0.80329307  0.85333119    -0.18300
F1659       F  0.10522020  0.76178226  0.88796648    -0.20700
F1660       F  0.12075817  0.78339550  0.90683436    -0.21900
F1661       F  0.13668396  0.75679314  0.89564878    -0.19100
F1662       F  0.12974005  0.82899371  0.81628889    -0.19200
F1663       F  0.14171474  0.80041955  0.80528908    -0.23000
F1664       F  0.16158285  0.82165327  0.81997426    -0.24600
C1665       C  0.98959594  0.74052334  0.87677452    -0.11400
C1666       C  0.00956961  0.73606633  0.87478219     0.11200
C1667       C  0.01564463  0.71643710  0.87117534    -0.03200
C1668       C  0.00122334  0.70210823  0.86833650    -0.06000
C1669       C  0.98107852  0.70670739  0.86953461    -0.16700
C1670       C  0.97516861  0.72617863  0.87450155     0.02200
C1671       C  0.02366077  0.75236575  0.87708054     0.12100
C1672       C  0.03722666  0.71064477  0.87063080     0.62800
H1673       H  0.00560753  0.68712718  0.86511853     0.12200
C1674       C  0.95389236  0.73183901  0.87831329     0.54900
H1675       H  0.98539639  0.75552877  0.88013546     0.08000
C1676       C  0.02768186  0.76579843  0.86188261    -0.05800
C1677       C  0.04087702  0.78109577  0.86523070    -0.06600
C1678       C  0.05019125  0.78321997  0.88309348    -0.16200
C1679       C  0.04607071  0.76984578  0.89834320    -0.01800
C1680       C  0.03250860  0.75486542  0.89511883    -0.09300
C1681       C  0.01845847  0.76368966  0.84209329     0.65000
H1682       H  0.04452392  0.79125048  0.85368282     0.10400
C1683       C  0.05580330  0.77014733  0.91802212     0.63400
H1684       H  0.02906469  0.74470524  0.90674614     0.07800
F1685       F  0.94360615  0.73263715  0.86117837    -0.19700
F1686       F  0.95216467  0.75010069  0.88685817    -0.15900
F1687       F  0.94550019  0.71825694  0.89066587    -0.19400
F1688       F  0.04555932  0.71383641  0.88846596    -0.22800
F1689       F  0.04690167  0.72171050  0.85688325    -0.24300
F1690       F  0.03998306  0.69098786  0.86621357    -0.18300
F1691       F  0.04157243  0.77246093  0.93208795    -0.20700
F1692       F  0.06914859  0.78504045  0.92002658    -0.21900
F1693       F  0.06554800  0.75242233  0.92114425    -0.19100
F1694       F  0.02483102  0.77795994  0.82926425    -0.19200
F1695       F  0.99831157  0.76540904  0.84350276    -0.23000
F1696       F  0.02331755  0.74551375  0.83456255    -0.24600
C1697       C  0.84125404  0.17512030  0.77459219    -0.11400
C1698       C  0.83227338  0.15738999  0.77915820     0.11200
C1699       C  0.81183770  0.15561422  0.77690768    -0.03200
C1700       C  0.80113695  0.17154514  0.76890454    -0.06000
C1701       C  0.81011931  0.18933364  0.76343718    -0.16700
C1702       C  0.83069160  0.19125138  0.76683615     0.02200
C1703       C  0.84499502  0.14069150  0.78549995     0.12100
C1704       C  0.80146061  0.13693519  0.78296144     0.62800
H1705       H  0.78554702  0.17002166  0.76674587     0.12200
C1706       C  0.84181603  0.21003738  0.76276515     0.54900
H1707       H  0.85690456  0.17599610  0.77688325     0.08000
C1708       C  0.85466126  0.12854060  0.77195089    -0.05800
C1709       C  0.86634945  0.11282692  0.77877411    -0.06600
C1710       C  0.86936413  0.10936495  0.79860275    -0.16200
C1711       C  0.86040458  0.12221605  0.81218599    -0.01800
C1712       C  0.84817130  0.13763787  0.80529366    -0.09300
C1713       C  0.85315097  0.13257178  0.75037600     0.65000
H1714       H  0.87361086  0.10324261  0.76852453     0.10400
C1715       C  0.86341629  0.11966496  0.83376658     0.63400
H1716       H  0.84103526  0.14759082  0.81529066     0.07800
F1717       F  0.84176328  0.21412834  0.74318199    -0.19700
F1718       F  0.86121303  0.20861123  0.76849847    -0.15900
F1719       F  0.83326453  0.22538198  0.77283993    -0.19400
F1720       F  0.80440286  0.13343508  0.80242925    -0.22800
F1721       F  0.80876656  0.12112438  0.77267657    -0.24300
F1722       F  0.78146790  0.13826764  0.77977240    -0.18300
F1723       F  0.88270489  0.12340258  0.83832942    -0.20700
F1724       F  0.85888504  0.10070674  0.83938959    -0.21900
F1725       F  0.85166322  0.13246630  0.84424749    -0.19100
F1726       F  0.86260683  0.11817494  0.73969176    -0.19200
F1727       F  0.86170227  0.15037138  0.74605803    -0.23000
F1728       F  0.83375909  0.13331564  0.74469415    -0.24600
C1729       C  0.85179317  0.43987808  0.93998955    -0.11400
C1730       C  0.86974341  0.43377982  0.93202337     0.11200
C1731       C  0.87034884  0.41795096  0.91891925    -0.03200
C1732       C  0.85279027  0.40845202  0.91446459    -0.06000
C1733       C  0.83494592  0.41379942  0.92325056    -0.16700
C1734       C  0.83426593  0.43014127  0.93586313     0.02200
C1735       C  0.88787568  0.44288148  0.93930972     0.12100
C1736       C  0.88958225  0.41053787  0.91039442     0.62800
H1737       H  0.85306917  0.39600124  0.90483992     0.12200
C1738       C  0.81525552  0.43735002  0.94501723     0.54900
H1739       H  0.85177218  0.45189124  0.95013908     0.08000
C1740       C  0.89487227  0.46106693  0.93223057    -0.05800
C1741       C  0.91190273  0.46884990  0.94048944    -0.06600
C1742       C  0.92166164  0.45918293  0.95574293    -0.16200
C1743       C  0.91497192  0.44064718  0.96233551    -0.01800
C1744       C  0.89798118  0.43296169  0.95411332    -0.09300
C1745       C  0.88397574  0.47255116  0.91663304     0.65000
H1746       H  0.91730450  0.48294181  0.93561319     0.10400
C1747       C  0.92597171  0.42871109  0.97758117     0.63400
H1748       H  0.89229057  0.41909085  0.95927772     0.07800
F1749       F  0.81730199  0.45563060  0.95332260    -0.19700
F1750       F  0.80953092  0.42434205  0.95932146    -0.15900
F1751       F  0.80071189  0.43898225  0.93119324    -0.19400
F1752       F  0.90104107  0.40219590  0.92479983    -0.22800
F1753       F  0.89960278  0.42587816  0.90193268    -0.24300
F1754       F  0.88665629  0.39646467  0.89643864    -0.18300
F1755       F  0.92445850  0.43787134  0.99521992    -0.20700
F1756       F  0.94549831  0.42686844  0.97244073    -0.21900
F1757       F  0.91857920  0.40996671  0.97965237    -0.19100
F1758       F  0.89461011  0.48846053  0.91009584    -0.19200
F1759       F  0.86635616  0.47947521  0.92395018    -0.23000
F1760       F  0.88032555  0.46067869  0.90101552    -0.24600
C1761       C  0.78764668  0.35142434  0.85371649    -0.11400
C1762       C  0.79256423  0.36412351  0.83849390     0.11200
C1763       C  0.79828918  0.38351713  0.84247564    -0.03200
C1764       C  0.79993058  0.38923411  0.86190319    -0.06000
C1765       C  0.79545463  0.37637167  0.87732104    -0.16700
C1766       C  0.78906281  0.35706974  0.87312560     0.02200
C1767       C  0.79091427  0.35641219  0.81859883     0.12100
C1768       C  0.80236776  0.39807702  0.82626607     0.62800
H1769       H  0.80457392  0.40397015  0.86520466     0.12200
C1770       C  0.78407537  0.34219341  0.88881755     0.54900
H1771       H  0.78274189  0.33683350  0.85014854     0.08000
C1772       C  0.80518638  0.34326705  0.81095500    -0.05800
C1773       C  0.80071868  0.33297440  0.79410078    -0.06600
C1774       C  0.78241823  0.33504945  0.78512982    -0.16200
C1775       C  0.76878174  0.34926689  0.79182515    -0.01800
C1776       C  0.77329072  0.35981024  0.80858687    -0.09300
C1777       C  0.82454387  0.33917542  0.82114772     0.65000
H1778       H  0.81078405  0.32179012  0.78878886     0.10400
C1779       C  0.74914038  0.35229376  0.78193560     0.63400
H1780       H  0.76252707  0.36979311  0.81476228     0.07800
F1781       F  0.79916721  0.34071102  0.90206511    -0.19700
F1782       F  0.78123290  0.32362391  0.88140374    -0.15900
F1783       F  0.76696579  0.34796347  0.89801916    -0.19400
F1784       F  0.78570060  0.40088219  0.81522944    -0.22800
F1785       F  0.81729607  0.39101813  0.81461741    -0.24300
F1786       F  0.80784206  0.41617769  0.83323428    -0.18300
F1787       F  0.73803405  0.36697056  0.79058165    -0.20700
F1788       F  0.73860092  0.33510625  0.78266601    -0.21900
F1789       F  0.75214154  0.35758106  0.76285276    -0.19100
F1790       F  0.83647744  0.32643821  0.81077899    -0.19200
F1791       F  0.82124589  0.33073204  0.83904566    -0.23000
F1792       F  0.83450399  0.35650226  0.82348865    -0.24600
C1793       C  0.73244284  0.38169229  0.00595638    -0.11400
C1794       C  0.73643700  0.36645309  0.99294657     0.11200
C1795       C  0.72673476  0.34829654  0.99510583    -0.03200
C1796       C  0.71233193  0.34646089  0.00958136    -0.06000
C1797       C  0.70759256  0.36209280  0.02185543    -0.16700
C1798       C  0.71800067  0.37986345  0.02037449     0.02200
C1799       C  0.75001465  0.37042274  0.97656076     0.12100
C1800       C  0.73169853  0.33095172  0.98227778     0.62800
H1801       H  0.70451886  0.33282394  0.01136735     0.12200
C1802       C  0.71359513  0.39685592  0.03379981     0.54900
H1803       H  0.74029051  0.39531812  0.00425476     0.08000
C1804       C  0.74351831  0.38041060  0.95966182    -0.05800
C1805       C  0.75703616  0.38395130  0.94470595    -0.06600
C1806       C  0.77686472  0.37857334  0.94647282    -0.16200
C1807       C  0.78342810  0.36867306  0.96344941    -0.01800
C1808       C  0.76975781  0.36464438  0.97821090    -0.09300
C1809       C  0.72245654  0.38766674  0.95764668     0.65000
H1810       H  0.75235256  0.39159697  0.93169579     0.10400
C1811       C  0.80468665  0.36224503  0.96593684     0.63400
H1812       H  0.77443154  0.35726488  0.99136605     0.07800
F1813       F  0.71551188  0.39067208  0.05278007    -0.19700
F1814       F  0.69465221  0.40365737  0.03076183    -0.15900
F1815       F  0.72620437  0.41233779  0.03076944    -0.19400
F1816       F  0.75091012  0.32505029  0.98538893    -0.22800
F1817       F  0.72939670  0.33616491  0.96308486    -0.24300
F1818       F  0.71979106  0.31507881  0.98608300    -0.18300
F1819       F  0.81630692  0.37856503  0.96785758    -0.20700
F1820       F  0.81084383  0.35159207  0.95007435    -0.21900
F1821       F  0.80730869  0.35050079  0.98218183    -0.19100
F1822       F  0.71899390  0.39625552  0.93977155    -0.19200
F1823       F  0.71838206  0.40157162  0.97156506    -0.23000
F1824       F  0.70977714  0.37216311  0.95988359    -0.24600
C1825       C  0.88942735  0.33182651  0.66746040    -0.11400
C1826       C  0.87901167  0.31429762  0.66608940     0.11200
C1827       C  0.88520649  0.29971171  0.65287223    -0.03200
C1828       C  0.90238184  0.30281416  0.64207668    -0.06000
C1829       C  0.91310701  0.32016070  0.64372240    -0.16700
C1830       C  0.90650849  0.33504404  0.65649463     0.02200
C1831       C  0.86178013  0.31140898  0.67888381     0.12100
C1832       C  0.87360229  0.28105656  0.65009499     0.62800
H1833       H  0.90760128  0.29167783  0.63216294     0.12200
C1834       C  0.91785544  0.35384073  0.65916606     0.54900
H1835       H  0.88418680  0.34284869  0.67748095     0.08000
C1836       C  0.86372977  0.30322560  0.69762305    -0.05800
C1837       C  0.84664342  0.29888214  0.70811860    -0.06600
C1838       C  0.82780561  0.30298665  0.70073143    -0.16200
C1839       C  0.82601012  0.31258497  0.68252107    -0.01800
C1840       C  0.84314432  0.31655789  0.67186625    -0.09300
C1841       C  0.88377714  0.29904934  0.70640596     0.65000
H1842       H  0.84784781  0.29179354  0.72213598     0.10400
C1843       C  0.80623512  0.31837327  0.67415763     0.63400
H1844       H  0.84216333  0.32338968  0.65771715     0.07800
F1845       F  0.91013055  0.36520420  0.67388614    -0.19700
F1846       F  0.91724280  0.36495195  0.64237149    -0.15900
F1847       F  0.93714173  0.34933310  0.66371467    -0.19400
F1848       F  0.85504754  0.28585923  0.64344109    -0.22800
F1849       F  0.87197498  0.27089180  0.66736515    -0.24300
F1850       F  0.88242214  0.26863311  0.63684324    -0.18300
F1851       F  0.79799602  0.33310756  0.68524773    -0.20700
F1852       F  0.79400857  0.30235101  0.67396097    -0.21900
F1853       F  0.80779673  0.32541328  0.65541839    -0.19100
F1854       F  0.88237235  0.29109521  0.72480644    -0.19200
F1855       F  0.89403908  0.31635134  0.70760009    -0.23000
F1856       F  0.89427290  0.28593301  0.69513974    -0.24600
C1857       C  0.00012018  0.26701451  0.61388671    -0.11400
C1858       C  0.00353616  0.25946081  0.63246070     0.11200
C1859       C  0.99426899  0.26825903  0.64855712    -0.03200
C1860       C  0.98083605  0.28381950  0.64531559    -0.06000
C1861       C  0.97718598  0.29133081  0.62668687    -0.16700
C1862       C  0.98720682  0.28301675  0.61064994     0.02200
C1863       C  0.01781203  0.24297670  0.63469349     0.12100
C1864       C  0.99880595  0.26139877  0.66903416     0.62800
H1865       H  0.97330710  0.29053187  0.65740772     0.12200
C1866       C  0.98424828  0.29073303  0.59019150     0.54900
H1867       H  0.00792372  0.26034722  0.60193471     0.08000
C1868       C  0.01245203  0.22316786  0.63236908    -0.05800
C1869       C  0.02681083  0.20837095  0.63517993    -0.06600
C1870       C  0.04618444  0.21276256  0.64038391    -0.16200
C1871       C  0.05151868  0.23281685  0.64237979    -0.01800
C1872       C  0.03718037  0.24753793  0.63913542    -0.09300
C1873       C  0.99167452  0.21774350  0.62693104     0.65000
H1874       H  0.02286727  0.19312018  0.63358918     0.10400
C1875       C  0.07208456  0.23898924  0.64780459     0.63400
H1876       H  0.04081460  0.26290426  0.64050599     0.07800
F1877       F  0.99332975  0.27877022  0.57670574    -0.19700
F1878       F  0.99215834  0.30925594  0.58840597    -0.15900
F1879       F  0.96447937  0.29166100  0.58585878    -0.19400
F1880       F  0.01845786  0.26390205  0.67291755    -0.22800
F1881       F  0.99441916  0.24174577  0.67123555    -0.24300
F1882       F  0.98812455  0.27189718  0.68257139    -0.18300
F1883       F  0.07433443  0.25914876  0.64634235    -0.20700
F1884       F  0.08568453  0.23024347  0.63566106    -0.21900
F1885       F  0.07594151  0.23358021  0.66671320    -0.19100
F1886       F  0.98944756  0.19758786  0.62589470    -0.19200
F1887       F  0.98700125  0.22579999  0.60911647    -0.23000
F1888       F  0.97857388  0.22484815  0.64050257    -0.24600
C1889       C  0.64900076  0.20539116  0.77169147    -0.11400
C1890       C  0.65331004  0.19492398  0.78869979     0.11200
C1891       C  0.67299960  0.19193175  0.79438680    -0.03200
C1892       C  0.68777070  0.20113040  0.78362432    -0.06000
C1893       C  0.68338642  0.21323132  0.76758825    -0.16700
C1894       C  0.66373458  0.21482612  0.76101758     0.02200
C1895       C  0.63681508  0.18888272  0.80120183     0.12100
C1896       C  0.67827983  0.17957475  0.81206145     0.62800
H1897       H  0.70286363  0.19968932  0.78826549     0.12200
C1898       C  0.65814502  0.22654511  0.74307125     0.54900
H1899       H  0.63378620  0.20707286  0.76748500     0.08000
C1900       C  0.62802159  0.20224382  0.81421864    -0.05800
C1901       C  0.61276560  0.19565182  0.82607391    -0.06600
C1902       C  0.60595779  0.17626576  0.82530239    -0.16200
C1903       C  0.61466249  0.16292269  0.81197393    -0.01800
C1904       C  0.62993830  0.16963656  0.80000708    -0.09300
C1905       C  0.63472841  0.22342078  0.81555447     0.65000
H1906       H  0.60609176  0.20570979  0.83625671     0.10400
C1907       C  0.60785140  0.14187164  0.81001868     0.63400
H1908       H  0.63687157  0.15984768  0.78972553     0.07800
F1909       F  0.65924569  0.24642098  0.74679438    -0.19700
F1910       F  0.63920793  0.22268193  0.73724319    -0.15900
F1911       F  0.67062145  0.22174917  0.72802119    -0.19400
F1912       F  0.67120182  0.16078470  0.81002154    -0.22800
F1913       F  0.67016267  0.18786934  0.82841922    -0.24300
F1914       F  0.69834972  0.17809155  0.81468318    -0.18300
F1915       F  0.61660884  0.13253411  0.79448948    -0.20700
F1916       F  0.58779238  0.14163703  0.80725316    -0.21900
F1917       F  0.61266015  0.13122161  0.82647101    -0.19100
F1918       F  0.62448561  0.23378076  0.82951180    -0.19200
F1919       F  0.63182482  0.23296836  0.79808340    -0.23000
F1920       F  0.65439676  0.22386931  0.82018242    -0.24600
C1921       C  0.52841034  0.21759121  0.88357747    -0.11400
C1922       C  0.52074598  0.22901649  0.86834119     0.11200
C1923       C  0.52709267  0.22542338  0.84921563    -0.03200
C1924       C  0.54026356  0.20975198  0.84586654    -0.06000
C1925       C  0.54736311  0.19774070  0.86094509    -0.16700
C1926       C  0.54173724  0.20193133  0.88024848     0.02200
C1927       C  0.50587680  0.24458659  0.87260154     0.12100
C1928       C  0.51984572  0.23800862  0.83237880     0.62800
H1929       H  0.54501450  0.20660026  0.83128598     0.12200
C1930       C  0.55006675  0.19036559  0.89730201     0.54900
H1931       H  0.52364035  0.22091926  0.89811393     0.08000
C1932       C  0.48571539  0.24032565  0.87426466    -0.05800
C1933       C  0.47211640  0.25605937  0.87551841    -0.06600
C1934       C  0.47816772  0.27570968  0.87560190    -0.16200
C1935       C  0.49845562  0.27987973  0.87467497    -0.01800
C1936       C  0.51200277  0.26411851  0.87348299    -0.09300
C1937       C  0.47873138  0.21923068  0.87481788     0.65000
H1938       H  0.45659183  0.25314211  0.87649263     0.10400
C1939       C  0.50575436  0.30085039  0.87378343     0.63400
H1940       H  0.52754780  0.26692106  0.87246574     0.07800
F1941       F  0.54255497  0.17160666  0.89756557    -0.19700
F1942       F  0.54538200  0.19913045  0.91469311    -0.15900
F1943       F  0.57028551  0.18924377  0.89597030    -0.19400
F1944       F  0.52507776  0.25733955  0.83501370    -0.22800
F1945       F  0.49968493  0.23700657  0.83106394    -0.24300
F1946       F  0.52778040  0.23189007  0.81500473    -0.18300
F1947       F  0.50219424  0.31008085  0.89114828    -0.20700
F1948       F  0.49627657  0.31110000  0.85910974    -0.21900
F1949       F  0.52569094  0.30150398  0.87019046    -0.19100
F1950       F  0.45850950  0.21827145  0.87565291    -0.19200
F1951       F  0.48625129  0.20975170  0.89097476    -0.23000
F1952       F  0.48498135  0.20936758  0.85851584    -0.24600
C1953       C  0.21719500  0.85883325  0.62557464    -0.11400
C1954       C  0.22713532  0.84184453  0.61929137     0.11200
C1955       C  0.22979087  0.83866564  0.59934029    -0.03200
C1956       C  0.22289287  0.85308645  0.58627537    -0.06000
C1957       C  0.21335830  0.87042827  0.59246516    -0.16700
C1958       C  0.21044250  0.87342755  0.61253261     0.02200
C1959       C  0.23463485  0.82775565  0.63413163     0.12100
C1960       C  0.23979631  0.82011336  0.59188620     0.62800
H1961       H  0.22489887  0.85086372  0.57094537     0.12200
C1962       C  0.20108874  0.89216178  0.62033497     0.54900
H1963       H  0.21511588  0.86070132  0.64094970     0.08000
C1964       C  0.25214104  0.83120211  0.64440555    -0.05800
C1965       C  0.25729154  0.81839520  0.65972253    -0.06600
C1966       C  0.24562009  0.80232347  0.66481283    -0.16200
C1967       C  0.22855435  0.79846218  0.65402769    -0.01800
C1968       C  0.22325985  0.81138963  0.63885905    -0.09300
C1969       C  0.26498551  0.84864534  0.63952814     0.65000
H1970       H  0.27012673  0.82124805  0.66835972     0.10400
C1971       C  0.21558599  0.78127321  0.65915829     0.63400
H1972       H  0.20985624  0.80917142  0.63089365     0.07800
F1973       F  0.21068660  0.90837852  0.61300283    -0.19700
F1974       F  0.20207457  0.89291684  0.64026483    -0.15900
F1975       F  0.18153879  0.89318384  0.61520525    -0.19400
F1976       F  0.22915610  0.80386350  0.59734606    -0.22800
F1977       F  0.25849104  0.81830913  0.59935742    -0.24300
F1978       F  0.24128712  0.82022859  0.57195966    -0.18300
F1979       F  0.20876049  0.78320417  0.67786094    -0.20700
F1980       F  0.22623165  0.76389692  0.65765946    -0.21900
F1981       F  0.19957603  0.78020049  0.64701164    -0.19100
F1982       F  0.28193478  0.84856911  0.65044853    -0.19200
F1983       F  0.25488253  0.86601753  0.64300844    -0.23000
F1984       F  0.27037494  0.84817962  0.62030452    -0.24600
C1985       C  0.26863644  0.88038256  0.47180305    -0.11400
C1986       C  0.26475667  0.89898526  0.47955328     0.11200
C1987       C  0.27371278  0.91574330  0.47143987    -0.03200
C1988       C  0.28619965  0.91327317  0.45545535    -0.06000
C1989       C  0.28999038  0.89467765  0.44742991    -0.16700
C1990       C  0.28103230  0.87784164  0.45572648     0.02200
C1991       C  0.25174046  0.90031946  0.49666391     0.12100
C1992       C  0.27015060  0.93610238  0.47972552     0.62800
H1993       H  0.29318016  0.92596239  0.44906823     0.12200
C1994       C  0.28491104  0.85720855  0.44824077     0.54900
H1995       H  0.26181216  0.86780421  0.47857100     0.08000
C1996       C  0.23108969  0.89979358  0.49509222    -0.05800
C1997       C  0.21976571  0.90058311  0.51206316    -0.06600
C1998       C  0.22851900  0.90153563  0.53034167    -0.16200
C1999       C  0.24918550  0.90281681  0.53180250    -0.01800
C2000       C  0.26046375  0.90182998  0.51485054    -0.09300
C2001       C  0.22114163  0.89786578  0.47563327     0.65000
H2002       H  0.20396421  0.89966956  0.51123182     0.10400
C2003       C  0.25935381  0.90574470  0.55102164     0.63400
H2004       H  0.27630513  0.90208002  0.51564837     0.07800
F2005       F  0.27706312  0.85538115  0.42999182    -0.19700
F2006       F  0.27650951  0.84301444  0.45993327    -0.15900
F2007       F  0.30486677  0.85342296  0.44759400    -0.19400
F2008       F  0.27736026  0.93681554  0.49831645    -0.22800
F2009       F  0.25029949  0.94043243  0.48004479    -0.24300
F2010       F  0.27929875  0.95052841  0.46893483    -0.18300
F2011       F  0.27873348  0.91095332  0.54854976    -0.20700
F2012       F  0.25902656  0.88854009  0.56177275    -0.21900
F2013       F  0.25003349  0.92063301  0.56115639    -0.19100
F2014       F  0.20095650  0.89943476  0.47717138    -0.19200
F2015       F  0.22573270  0.87974321  0.46783395    -0.23000
F2016       F  0.22736584  0.91247270  0.46315706    -0.24600
C2017       C  0.06520508  0.07975595  0.58517587    -0.11400
C2018       C  0.05181658  0.09292492  0.59376094     0.11200
C2019       C  0.03144273  0.09057580  0.59069565    -0.03200
C2020       C  0.02523279  0.07579005  0.57815517    -0.06000
C2021       C  0.03862773  0.06316709  0.56897918    -0.16700
C2022       C  0.05887764  0.06466425  0.57293047     0.02200
C2023       C  0.05936546  0.11034588  0.60411058     0.12100
C2024       C  0.01630633  0.10386370  0.60034274     0.62800
H2025       H  0.00982526  0.07442761  0.57478649     0.12200
C2026       C  0.07364592  0.05071840  0.56372927     0.54900
H2027       H  0.08069494  0.08184158  0.58758927     0.08000
C2028       C  0.06551013  0.10960946  0.62359652    -0.05800
C2029       C  0.06956581  0.12738410  0.63298943    -0.06600
C2030       C  0.06794857  0.14564549  0.62340640    -0.16200
C2031       C  0.06361657  0.14609754  0.60335921    -0.01800
C2032       C  0.05941720  0.12834345  0.59409834    -0.09300
C2033       C  0.06785546  0.09019277  0.63434212     0.65000
H2034       H  0.07356595  0.12718524  0.64809965     0.10400
C2035       C  0.06348203  0.16506969  0.59159634     0.63400
H2036       H  0.05529068  0.12844751  0.57901107     0.07800
F2037       F  0.09266555  0.05497602  0.56894908    -0.19700
F2038       F  0.07234285  0.05197129  0.54384364    -0.15900
F2039       F  0.06981339  0.03166526  0.56957815    -0.19400
F2040       F  0.01825629  0.12301318  0.59389040    -0.22800
F2041       F  0.01884182  0.10321285  0.62011937    -0.24300
F2042       F  0.99736794  0.09812715  0.59640854    -0.18300
F2043       F  0.06341293  0.16144887  0.57196741    -0.20700
F2044       F  0.08001959  0.17579277  0.59560313    -0.21900
F2045       F  0.04691030  0.17613051  0.59589550    -0.19100
F2046       F  0.07308866  0.09285968  0.65342032    -0.19200
F2047       F  0.08238189  0.07898986  0.62563699    -0.23000
F2048       F  0.05048904  0.08002978  0.63404985    -0.24600
C2049       C  0.15112755  0.95263558  0.56059898    -0.11400
C2050       C  0.13313529  0.94300116  0.56085413     0.11200
C2051       C  0.13270625  0.92243975  0.56438784    -0.03200
C2052       C  0.15059394  0.91204246  0.56663275    -0.06000
C2053       C  0.16862350  0.92154761  0.56490945    -0.16700
C2054       C  0.16895153  0.94227013  0.56278933     0.02200
C2055       C  0.11569583  0.95415095  0.55369147     0.12100
C2056       C  0.11351311  0.91142453  0.56484064     0.62800
H2057       H  0.15066003  0.89621591  0.56850995     0.12200
C2058       C  0.18803229  0.95343367  0.56251961     0.54900
H2059       H  0.15118703  0.96826945  0.55748202     0.08000
C2060       C  0.10514104  0.96808987  0.56482915    -0.05800
C2061       C  0.08939671  0.97856199  0.55614165    -0.06600
C2062       C  0.08446123  0.97594318  0.53662580    -0.16200
C2063       C  0.09535473  0.96201478  0.52554521    -0.01800
C2064       C  0.11082216  0.95154968  0.53433732    -0.09300
C2065       C  0.11058254  0.97192310  0.58566181     0.65000
H2066       H  0.08102111  0.98916924  0.56444983     0.10400
C2067       C  0.09096217  0.95795323  0.50449888     0.63400
H2068       H  0.11963520  0.94131132  0.52599612     0.07800
F2069       F  0.18483219  0.97342499  0.56478331    -0.19700
F2070       F  0.19755770  0.95058224  0.54513001    -0.15900
F2071       F  0.19997442  0.94693607  0.57745238    -0.19400
F2072       F  0.10529077  0.91135896  0.54663930    -0.22800
F2073       F  0.10056560  0.92038449  0.57748312    -0.24300
F2074       F  0.11618636  0.89208882  0.57080173    -0.18300
F2075       F  0.09667976  0.97381767  0.49334317    -0.20700
F2076       F  0.07117813  0.95467694  0.50209206    -0.21900
F2077       F  0.10096461  0.94146959  0.49788551    -0.19100
F2078       F  0.09815804  0.98568789  0.59403922    -0.19200
F2079       F  0.12943322  0.97896538  0.58659670    -0.23000
F2080       F  0.10955834  0.95468831  0.59630492    -0.24600
C2081       C  0.90878538  0.95798396  0.61347427    -0.11400
C2082       C  0.92786144  0.96401885  0.61771625     0.11200
C2083       C  0.93476445  0.96307456  0.63691844    -0.03200
C2084       C  0.92218726  0.95602634  0.65137289    -0.06000
C2085       C  0.90300767  0.95019312  0.64726490    -0.16700
C2086       C  0.89614263  0.95096503  0.62799653     0.02200
C2087       C  0.93994345  0.97232860  0.60192984     0.12100
C2088       C  0.95508542  0.97008749  0.64220976     0.62800
H2089       H  0.92704780  0.95557709  0.66624070     0.12200
C2090       C  0.87542119  0.94516377  0.62291913     0.54900
H2091       H  0.90380062  0.95914568  0.59867688     0.08000
C2092       C  0.95050289  0.96023942  0.58890315    -0.05800
C2093       C  0.96162803  0.96928358  0.57431928    -0.06600
C2094       C  0.96243823  0.98980189  0.57254156    -0.16200
C2095       C  0.95228095  0.00187850  0.58582783    -0.01800
C2096       C  0.94083038  0.99286485  0.60017022    -0.09300
C2097       C  0.95008740  0.93795478  0.59046284     0.65000
H2098       H  0.96961799  0.96039753  0.56396779     0.10400
C2099       C  0.95403750  0.02408467  0.58516468     0.63400
H2100       H  0.93255032  0.00178093  0.61027615     0.07800
F2101       F  0.87289451  0.92545153  0.62705441    -0.19700
F2102       F  0.87142696  0.94816629  0.60352355    -0.15900
F2103       F  0.86210598  0.95622688  0.63347082    -0.19400
F2104       F  0.95631086  0.99008567  0.63884894    -0.22800
F2105       F  0.96914391  0.96048372  0.63127155    -0.24300
F2106       F  0.95932800  0.96656089  0.66146177    -0.18300
F2107       F  0.94520161  0.03150715  0.56866540    -0.20700
F2108       F  0.97360385  0.02910701  0.58512184    -0.21900
F2109       F  0.94519423  0.03284103  0.60097140    -0.19100
F2110       F  0.96132601  0.92908274  0.57624911    -0.19200
F2111       F  0.93109840  0.93150377  0.58860867    -0.23000
F2112       F  0.95734605  0.93188191  0.60816814    -0.24600
C2113       C  0.41378564  0.59383047  0.98251765    -0.11400
C2114       C  0.39945771  0.58508027  0.97103222     0.11200
C2115       C  0.40184713  0.56520154  0.96553271    -0.03200
C2116       C  0.41812528  0.55443732  0.97258127    -0.06000
C2117       C  0.43216851  0.56296096  0.98456430    -0.16700
C2118       C  0.43013913  0.58301178  0.98949532     0.02200
C2119       C  0.38164621  0.59682905  0.96571491     0.12100
C2120       C  0.38724443  0.55539558  0.95233662     0.62800
H2121       H  0.41998485  0.53907829  0.96889205     0.12200
C2122       C  0.44487495  0.59265324  0.00246160     0.54900
H2123       H  0.41176721  0.60912739  0.98635022     0.08000
C2124       C  0.36571575  0.59895677  0.97859138    -0.05800
C2125       C  0.34943914  0.61045340  0.97284657    -0.06600
C2126       C  0.34812252  0.61957917  0.95447633    -0.16200
C2127       C  0.36401716  0.61672564  0.94126733    -0.01800
C2128       C  0.38065413  0.60574224  0.94742568    -0.09300
C2129       C  0.36586438  0.58905646  0.99837815     0.65000
H2130       H  0.33751942  0.61234323  0.98298530     0.10400
C2131       C  0.36367103  0.62466266  0.92067835     0.63400
H2132       H  0.39310713  0.60379073  0.93789322     0.07800
F2133       F  0.43970979  0.61194983  0.00646763    -0.19700
F2134       F  0.46291072  0.59256053  0.99342435    -0.15900
F2135       F  0.44622871  0.58239761  0.01974625    -0.19400
F2136       F  0.38722554  0.56467038  0.93451180    -0.22800
F2137       F  0.36860869  0.55655471  0.96011353    -0.24300
F2138       F  0.39184866  0.53572811  0.94958115    -0.18300
F2139       F  0.37986628  0.61844062  0.91018913    -0.20700
F2140       F  0.36363828  0.64499165  0.92079106    -0.21900
F2141       F  0.34723712  0.61807438  0.91120936    -0.19100
F2142       F  0.34841626  0.59209724  0.00821173    -0.19200
F2143       F  0.38081179  0.59648001  0.00941450    -0.23000
F2144       F  0.36867913  0.56900059  0.99651611    -0.24600
C2145       C  0.57612155  0.41479219  0.04694004    -0.11400
C2146       C  0.58435119  0.40308439  0.03234052     0.11200
C2147       C  0.57516270  0.40254205  0.01403491    -0.03200
C2148       C  0.55885228  0.41498839  0.01051859    -0.06000
C2149       C  0.55152442  0.42773578  0.02467293    -0.16700
C2150       C  0.55997703  0.42746302  0.04331071     0.02200
C2151       C  0.60349308  0.39291102  0.03613639     0.12100
C2152       C  0.58298596  0.38944839  0.99806159     0.62800
H2153       H  0.55213951  0.41548400  0.99637090     0.12200
C2154       C  0.55266134  0.44130995  0.05887476     0.54900
H2155       H  0.58318242  0.41472841  0.06091866     0.08000
C2156       C  0.62139160  0.40311490  0.03480451    -0.05800
C2157       C  0.63905126  0.39274662  0.03821241    -0.06600
C2158       C  0.63944665  0.37261402  0.04281568    -0.16200
C2159       C  0.62156162  0.36227716  0.04381214    -0.01800
C2160       C  0.60378551  0.37278802  0.04086487    -0.09300
C2161       C  0.62185835  0.42490004  0.02976526     0.65000
H2162       H  0.65283684  0.40038379  0.03744262     0.10400
C2163       C  0.62128451  0.34013309  0.04670359     0.63400
H2164       H  0.58993097  0.36529701  0.04181205     0.07800
F2165       F  0.55468031  0.46057548  0.05272065    -0.19700
F2166       F  0.56300450  0.43885577  0.07591228    -0.15900
F2167       F  0.53313910  0.43783957  0.06270687    -0.19400
F2168       F  0.58330618  0.37006218  0.00419757    -0.22800
F2169       F  0.60176892  0.39490199  0.99310763    -0.24300
F2170       F  0.57145950  0.39071726  0.98167124    -0.18300
F2171       F  0.60249248  0.33286320  0.04550965    -0.20700
F2172       F  0.62868873  0.33507959  0.06463868    -0.21900
F2173       F  0.63254840  0.33120539  0.03256173    -0.19100
F2174       F  0.64082858  0.43167984  0.02834754    -0.19200
F2175       F  0.61231254  0.43561047  0.04388503    -0.23000
F2176       F  0.61272967  0.42834727  0.01225122    -0.24600
C2177       C  0.47154105  0.38035715  0.96036605    -0.11400
C2178       C  0.45675944  0.38167250  0.94634961     0.11200
C2179       C  0.44442872  0.39854146  0.94560199    -0.03200
C2180       C  0.44871149  0.41452387  0.95758517    -0.06000
C2181       C  0.46462509  0.41400471  0.97053443    -0.16700
C2182       C  0.47575504  0.39627963  0.97255582     0.02200
C2183       C  0.45536291  0.36581453  0.93172015     0.12100
C2184       C  0.42693605  0.39960289  0.93206224     0.62800
H2185       H  0.43996542  0.42790749  0.95648123     0.12200
C2186       C  0.49275624  0.39450333  0.98656177     0.54900
H2187       H  0.48042950  0.36704234  0.96095959     0.08000
C2188       C  0.46656840  0.36628335  0.91445685    -0.05800
C2189       C  0.46394241  0.35139181  0.90071791    -0.06600
C2190       C  0.45069742  0.33612419  0.90384315    -0.16200
C2191       C  0.44011756  0.33522079  0.92140653    -0.01800
C2192       C  0.44252976  0.35022827  0.93507534    -0.09300
C2193       C  0.48132201  0.38240448  0.91068690     0.65000
H2194       H  0.47232265  0.35145721  0.88742847     0.10400
C2195       C  0.42661462  0.31823700  0.92568660     0.63400
H2196       H  0.43437780  0.34996773  0.94849437     0.07800
F2197       F  0.50668444  0.40836235  0.98200797    -0.19700
F2198       F  0.50167947  0.37610422  0.98596520    -0.15900
F2199       F  0.48612638  0.39741831  0.00519316    -0.19400
F2200       F  0.41402331  0.38485482  0.93680668    -0.22800
F2201       F  0.43292936  0.39721606  0.91315460    -0.24300
F2202       F  0.41698791  0.41743300  0.93328801    -0.18300
F2203       F  0.43713346  0.30070282  0.92510451    -0.20700
F2204       F  0.41188066  0.31788871  0.91204687    -0.21900
F2205       F  0.41803841  0.31977593  0.94373735    -0.19100
F2206       F  0.49076705  0.38005476  0.89314842    -0.19200
F2207       F  0.49538314  0.38210345  0.92501279    -0.23000
F2208       F  0.47200465  0.40058679  0.91049327    -0.24600
C2209       C  0.39346962  0.42649105  0.11845683    -0.11400
C2210       C  0.39799398  0.44564589  0.11248971     0.11200
C2211       C  0.39192338  0.46174855  0.12391354    -0.03200
C2212       C  0.38295586  0.45797856  0.14182210    -0.06000
C2213       C  0.37948295  0.43873746  0.14858020    -0.16700
C2214       C  0.38413748  0.42265421  0.13629141     0.02200
C2215       C  0.40983404  0.44847808  0.09461505     0.12100
C2216       C  0.39502615  0.48284353  0.11726434     0.62800
H2217       H  0.37874736  0.47022393  0.15087647     0.12200
C2218       C  0.37984577  0.40153601  0.14193212     0.54900
H2219       H  0.39776832  0.41449740  0.10911728     0.08000
C2220       C  0.43054662  0.44683214  0.09479680    -0.05800
C2221       C  0.44100802  0.45140805  0.07785776    -0.06600
C2222       C  0.43151856  0.45819581  0.06105233    -0.16200
C2223       C  0.41070498  0.45935359  0.06075623    -0.01800
C2224       C  0.40022085  0.45402532  0.07751537    -0.09300
C2225       C  0.44157472  0.44084139  0.11299540     0.65000
H2226       H  0.45686842  0.45066160  0.07791795     0.10400
C2227       C  0.39950877  0.46645447  0.04305298     0.63400
H2228       H  0.38437218  0.45502276  0.07770653     0.07800
F2229       F  0.38884607  0.39684882  0.15926351    -0.19700
F2230       F  0.38664171  0.38834933  0.12827443    -0.15900
F2231       F  0.35982581  0.39917743  0.14362951    -0.19400
F2232       F  0.38433018  0.48654872  0.10067900    -0.22800
F2233       F  0.41463857  0.48590827  0.11347317    -0.24300
F2234       F  0.38902057  0.49627431  0.13103631    -0.18300
F2235       F  0.37964344  0.46297126  0.04472339    -0.20700
F2236       F  0.40633815  0.45679913  0.02684100    -0.21900
F2237       F  0.40183358  0.48647459  0.04066310    -0.19100
F2238       F  0.46167413  0.44108851  0.11029513    -0.19200
F2239       F  0.43649344  0.42200776  0.11845842    -0.23000
F2240       F  0.43696751  0.45363455  0.12777126    -0.24600
C2241       C  0.39115776  0.53125736  0.24463344    -0.11400
C2242       C  0.39344488  0.51218468  0.25211774     0.11200
C2243       C  0.40106554  0.50939475  0.27090152    -0.03200
C2244       C  0.40472889  0.52603399  0.28217916    -0.06000
C2245       C  0.40142668  0.54533140  0.27519354    -0.16700
C2246       C  0.39519641  0.54798322  0.25569001     0.02200
C2247       C  0.38792328  0.49544261  0.23970857     0.12100
C2248       C  0.40518871  0.48891950  0.27900952     0.62800
H2249       H  0.40998104  0.52395940  0.29675812     0.12200
C2250       C  0.39312761  0.56812719  0.24614544     0.54900
H2251       H  0.38587985  0.53290340  0.22997134     0.08000
C2252       C  0.36826409  0.48935693  0.23801440    -0.05800
C2253       C  0.36403044  0.47361207  0.22573332    -0.06600
C2254       C  0.37863176  0.46450505  0.21449164    -0.16200
C2255       C  0.39832519  0.47078448  0.21605953    -0.01800
C2256       C  0.40259549  0.48615567  0.22877395    -0.09300
C2257       C  0.35173715  0.50005820  0.24844691     0.65000
H2258       H  0.34905458  0.46889546  0.22410356     0.10400
C2259       C  0.41484876  0.46139792  0.20446366     0.63400
H2260       H  0.41743895  0.49139919  0.22999590     0.07800
F2261       F  0.39097409  0.56676733  0.22634532    -0.19700
F2262       F  0.40969336  0.57903969  0.24951025    -0.15900
F2263       F  0.37676372  0.57786440  0.25328978    -0.19400
F2264       F  0.41865401  0.47921530  0.26744683    -0.22800
F2265       F  0.38807820  0.47833709  0.27965594    -0.24300
F2266       F  0.41280837  0.48947924  0.29749084    -0.18300
F2267       F  0.41325253  0.46701969  0.18530431    -0.20700
F2268       F  0.41406196  0.44113139  0.20595139    -0.21900
F2269       F  0.43305270  0.46706944  0.21097641    -0.19100
F2270       F  0.33398051  0.49083335  0.24608338    -0.19200
F2271       F  0.34988507  0.51899611  0.24119442    -0.23000
F2272       F  0.35560958  0.50083925  0.26798710    -0.24600
C2273       C  0.70268131  0.83804333  0.86303092    -0.11400
C2274       C  0.70525828  0.81811598  0.86776142     0.11200
C2275       C  0.70236626  0.81146213  0.88691843    -0.03200
C2276       C  0.69632480  0.82517282  0.90081966    -0.06000
C2277       C  0.69368924  0.84513250  0.89608157    -0.16700
C2278       C  0.69705531  0.85183333  0.87697501     0.02200
C2279       C  0.71232169  0.80487495  0.85245378     0.12100
C2280       C  0.70662100  0.79025204  0.89277710     0.62800
H2281       H  0.69425327  0.82055518  0.91567708     0.12200
C2282       C  0.69574136  0.87351960  0.87156462     0.54900
H2283       H  0.70550914  0.84272521  0.84831670     0.08000
C2284       C  0.69945279  0.79661812  0.83892160    -0.05800
C2285       C  0.70741756  0.78481605  0.82428873    -0.06600
C2286       C  0.72771191  0.78173814  0.82249584    -0.16200
C2287       C  0.74063419  0.79067620  0.83569132    -0.01800
C2288       C  0.73256931  0.80187163  0.85072908    -0.09300
C2289       C  0.67753668  0.80078083  0.83960750     0.65000
H2290       H  0.69788289  0.77837878  0.81367436     0.10400
C2291       C  0.76275658  0.78948675  0.83335133     0.63400
H2292       H  0.74202454  0.80891736  0.86102395     0.07800
F2293       F  0.67660780  0.88022345  0.87331335    -0.19700
F2294       F  0.70170738  0.87693653  0.85274536    -0.15900
F2295       F  0.70764291  0.88421223  0.88357730    -0.19400
F2296       F  0.72648969  0.78636423  0.89112764    -0.22800
F2297       F  0.69660023  0.77757895  0.88101513    -0.24300
F2298       F  0.70107813  0.78648122  0.91165986    -0.18300
F2299       F  0.77231023  0.80077926  0.84681153    -0.20700
F2300       F  0.76800790  0.79630602  0.81525533    -0.21900
F2301       F  0.76917983  0.77027484  0.83566949    -0.19100
F2302       F  0.66768858  0.79099665  0.82523760    -0.19200
F2303       F  0.67393840  0.82069800  0.83713970    -0.23000
F2304       F  0.66999669  0.79483797  0.85719531    -0.24600
C2305       C  0.79137551  0.83390076  0.10645966    -0.11400
C2306       C  0.80757081  0.82655297  0.11673093     0.11200
C2307       C  0.82667885  0.83133746  0.11049471    -0.03200
C2308       C  0.82883765  0.84438787  0.09470623    -0.06000
C2309       C  0.81257419  0.85250327  0.08481657    -0.16700
C2310       C  0.79337579  0.84693030  0.09070068     0.02200
C2311       C  0.80361384  0.81508687  0.13473660     0.12100
C2312       C  0.84465517  0.82276480  0.12052721     0.62800
H2313       H  0.84337318  0.84835976  0.08993662     0.12200
C2314       C  0.77486593  0.85502626  0.08109471     0.54900
H2315       H  0.77695181  0.82964361  0.11134013     0.08000
C2316       C  0.79718012  0.82463759  0.15172269    -0.05800
C2317       C  0.79101206  0.81314262  0.16745321    -0.06600
C2318       C  0.79148762  0.79247870  0.16708028    -0.16200
C2319       C  0.79940181  0.78290757  0.15068456    -0.01800
C2320       C  0.80485965  0.79442695  0.13449418    -0.09300
C2321       C  0.79655485  0.84693401  0.15322594     0.65000
H2322       H  0.78525492  0.82034271  0.18018320     0.10400
C2323       C  0.80268992  0.76084162  0.15050001     0.63400
H2324       H  0.80985195  0.78735542  0.12140434     0.07800
F2325       F  0.75811539  0.84986303  0.09111265    -0.19700
F2326       F  0.77330376  0.84759886  0.06266465    -0.15900
F2327       F  0.77531933  0.87534316  0.08031382    -0.19400
F2328       F  0.84485825  0.80253147  0.11888161    -0.22800
F2329       F  0.84437872  0.82762867  0.13984266    -0.24300
F2330       F  0.86184228  0.82971449  0.11252378    -0.18300
F2331       F  0.78492394  0.75155264  0.14912698    -0.20700
F2332       F  0.81204556  0.75478643  0.16727463    -0.21900
F2333       F  0.81428590  0.75511653  0.13506140    -0.19100
F2334       F  0.79256195  0.85298579  0.17186640    -0.19200
F2335       F  0.78214059  0.85466644  0.14129118    -0.23000
F2336       F  0.81443756  0.85457668  0.14789744    -0.24600
C2337       C  0.73512823  0.86373235  0.98233900    -0.11400
C2338       C  0.74660096  0.88064887  0.98133417     0.11200
C2339       C  0.74286878  0.89508625  0.96693387    -0.03200
C2340       C  0.72708759  0.89238808  0.95432514    -0.06000
C2341       C  0.71560899  0.87551495  0.95536351    -0.16700
C2342       C  0.71952343  0.86089791  0.96953454     0.02200
C2343       C  0.76232671  0.88273231  0.99578099     0.12100
C2344       C  0.75586980  0.91284860  0.96446151     0.62800
H2345       H  0.72394908  0.90314775  0.94308337     0.12200
C2346       C  0.70686987  0.84281807  0.97151578     0.54900
H2347       H  0.73844250  0.85284599  0.99341301     0.08000
C2348       C  0.75820994  0.88918181  0.01473427    -0.05800
C2349       C  0.77344945  0.88886508  0.02832616    -0.06600
C2350       C  0.79254396  0.88293822  0.02330766    -0.16200
C2351       C  0.79686659  0.87748801  0.00410117    -0.01800
C2352       C  0.78147184  0.87708632  0.99066082    -0.09300
C2353       C  0.73781440  0.89626971  0.02054458     0.65000
H2354       H  0.77055408  0.89308576  0.04310256     0.10400
C2355       C  0.81753802  0.87190215  0.99797221     0.63400
H2356       H  0.78419497  0.87222848  0.97604881     0.07800
F2357       F  0.71262429  0.83100356  0.98693067    -0.19700
F2358       F  0.70812550  0.83168303  0.95497123    -0.15900
F2359       F  0.68757650  0.84856504  0.97445771    -0.19400
F2360       F  0.77442680  0.90671236  0.95894025    -0.22800
F2361       F  0.75714288  0.92299113  0.98157533    -0.24300
F2362       F  0.74872156  0.92573112  0.95048619    -0.18300
F2363       F  0.81832296  0.86595483  0.97893125    -0.20700
F2364       F  0.82462031  0.85663361  0.00941955    -0.21900
F2365       F  0.82951665  0.88796817  0.99987530    -0.19100
F2366       F  0.73732568  0.90290000  0.03936146    -0.19200
F2367       F  0.72465731  0.88113461  0.01903491    -0.23000
F2368       F  0.73181329  0.91162016  0.00864579    -0.24600
C2369       C  0.95482841  0.91919440  0.37077567    -0.11400
C2370       C  0.95513078  0.91769014  0.39094756     0.11200
C2371       C  0.94789629  0.90058391  0.40017055    -0.03200
C2372       C  0.94173868  0.88488445  0.38866911    -0.06000
C2373       C  0.94177380  0.88623508  0.36845578    -0.16700
C2374       C  0.94803813  0.90374904  0.35930292     0.02200
C2375       C  0.96358374  0.93402304  0.40213435     0.12100
C2376       C  0.94643803  0.89909967  0.42203090     0.62800
H2377       H  0.93665407  0.87144181  0.39536701     0.12200
C2378       C  0.94773756  0.90597863  0.33752778     0.54900
H2379       H  0.96008082  0.93258153  0.36410832     0.08000
C2380       C  0.98397013  0.93500642  0.40572997    -0.05800
C2381       C  0.99076991  0.94944064  0.41834137    -0.06600
C2382       C  0.97785241  0.96264992  0.42739813    -0.16200
C2383       C  0.95756532  0.96215473  0.42326990    -0.01800
C2384       C  0.95079071  0.94798758  0.41030164    -0.09300
C2385       C  0.99837872  0.92052397  0.39671608     0.65000
H2386       H  0.00620047  0.95005689  0.42187220     0.10400
C2387       C  0.94306451  0.97557649  0.43357410     0.63400
H2388       H  0.93529604  0.94699881  0.40720472     0.07800
F2389       F  0.95847581  0.89087592  0.32919054    -0.19700
F2390       F  0.95565549  0.92362991  0.33151449    -0.15900
F2391       F  0.92860993  0.90539668  0.33107919    -0.19400
F2392       F  0.93302394  0.91291636  0.42865157    -0.22800
F2393       F  0.96443910  0.90248283  0.43036754    -0.24300
F2394       F  0.94032771  0.88072982  0.42806498    -0.18300
F2395       F  0.94761006  0.99501523  0.43003131    -0.20700
F2396       F  0.94385227  0.97189779  0.45322040    -0.21900
F2397       F  0.92402794  0.97267105  0.42750318    -0.19100
F2398       F  0.01734861  0.92342638  0.40299939    -0.19200
F2399       F  0.99812646  0.92274499  0.37687710    -0.23000
F2400       F  0.99334280  0.90148116  0.40148763    -0.24600
C2401       C  0.87135910  0.84495498  0.30326905    -0.11400
C2402       C  0.85610653  0.84064507  0.31620656     0.11200
C2403       C  0.85940408  0.84226827  0.33631316    -0.03200
C2404       C  0.87825033  0.84708794  0.34280694    -0.06000
C2405       C  0.89373561  0.85026315  0.32989420    -0.16700
C2406       C  0.89011877  0.85011480  0.30980464     0.02200
C2407       C  0.83770244  0.83235346  0.30831129     0.12100
C2408       C  0.84342895  0.83797003  0.35093968     0.62800
H2409       H  0.88131205  0.84739562  0.35813224     0.12200
C2410       C  0.90594411  0.85556120  0.29542932     0.54900
H2411       H  0.86861999  0.84359890  0.28795906     0.08000
C2412       C  0.82335229  0.84392080  0.29848149    -0.05800
C2413       C  0.80738318  0.83442801  0.28983787    -0.06600
C2414       C  0.80532319  0.81394469  0.29098308    -0.16200
C2415       C  0.81932624  0.80252373  0.30140454    -0.01800
C2416       C  0.83535373  0.81196323  0.30978581    -0.09300
C2417       C  0.82502299  0.86610310  0.29695569     0.65000
H2418       H  0.79665381  0.84286618  0.28161663     0.10400
C2419       C  0.81781211  0.78033994  0.30298746     0.63400
H2420       H  0.84661719  0.80338251  0.31712607     0.07800
F2421       F  0.91286356  0.87404451  0.29958430    -0.19700
F2422       F  0.89901245  0.85587743  0.27666688    -0.15900
F2423       F  0.92122197  0.84211519  0.29646750    -0.19400
F2424       F  0.84017662  0.81798292  0.35172608    -0.22800
F2425       F  0.82623956  0.84766317  0.34583085    -0.24300
F2426       F  0.84854424  0.84408461  0.36922425    -0.18300
F2427       F  0.81883405  0.77220753  0.28482155    -0.20700
F2428       F  0.80023265  0.77548048  0.31157913    -0.21900
F2429       F  0.83278898  0.77211644  0.31398690    -0.19100
F2430       F  0.80867356  0.87465035  0.28833257    -0.19200
F2431       F  0.84123708  0.87091988  0.28603084    -0.23000
F2432       F  0.82688786  0.87400649  0.31514832    -0.24600
C2433       C  0.97444368  0.79054464  0.33598995    -0.11400
C2434       C  0.98141456  0.78512506  0.35430005     0.11200
C2435       C  0.97584945  0.79640088  0.37052617    -0.03200
C2436       C  0.96321730  0.81278077  0.36778214    -0.06000
C2437       C  0.95583794  0.81803637  0.34947274    -0.16700
C2438       C  0.96144125  0.80659335  0.33326346     0.02200
C2439       C  0.99505699  0.76788198  0.35570485     0.12100
C2440       C  0.98334366  0.79123550  0.39058886     0.62800
H2441       H  0.95891141  0.82163900  0.38002716     0.12200
C2442       C  0.95405182  0.81128659  0.31311407     0.54900
H2443       H  0.97916797  0.78181899  0.32379319     0.08000
C2444       C  0.98833107  0.74831719  0.35525614    -0.05800
C2445       C  0.00219744  0.73279803  0.35535756    -0.06600
C2446       C  0.02247433  0.73614073  0.35552315    -0.16200
C2447       C  0.02918329  0.75582016  0.35624545    -0.01800
C2448       C  0.01524463  0.77134398  0.35613205    -0.09300
C2449       C  0.96660941  0.74381673  0.35446335     0.65000
H2450       H  0.99724335  0.71776967  0.35484623     0.10400
C2451       C  0.05078618  0.76061561  0.35763557     0.63400
H2452       H  0.01998967  0.78646258  0.35614468     0.07800
F2453       F  0.93421295  0.80765482  0.31220114    -0.19700
F2454       F  0.96330040  0.79985721  0.29928296    -0.15900
F2455       F  0.95749029  0.83078075  0.30863193    -0.19400
F2456       F  0.00346655  0.79305163  0.39113053    -0.22800
F2457       F  0.97858401  0.77211946  0.39533708    -0.24300
F2458       F  0.97531248  0.80345263  0.40448009    -0.18300
F2459       F  0.06019185  0.75576008  0.34063914    -0.20700
F2460       F  0.05922063  0.75026592  0.37283889    -0.21900
F2461       F  0.05365898  0.78044535  0.36075874    -0.19100
F2462       F  0.96330378  0.72378758  0.35448708    -0.19200
F2463       F  0.95848022  0.75172649  0.33783132    -0.23000
F2464       F  0.95712803  0.75175186  0.37027552    -0.24600
C2465       C  0.64813167  0.88591861  0.28889426    -0.11400
C2466       C  0.66379888  0.88211961  0.30148156     0.11200
C2467       C  0.66654433  0.89446928  0.31755947    -0.03200
C2468       C  0.65303853  0.91003634  0.32074133    -0.06000
C2469       C  0.63748544  0.91401822  0.30796352    -0.16700
C2470       C  0.63487144  0.90165076  0.29181942     0.02200
C2471       C  0.67766187  0.86580937  0.29645833     0.12100
C2472       C  0.68390773  0.89149649  0.33097294     0.62800
H2473       H  0.65490034  0.91967119  0.33292950     0.12200
C2474       C  0.61825868  0.90496628  0.27761295     0.54900
H2475       H  0.64662387  0.87658361  0.27642341     0.08000
C2476       C  0.67321492  0.84578974  0.29995818    -0.05800
C2477       C  0.68589695  0.83110150  0.29255526    -0.06600
C2478       C  0.70250347  0.83588824  0.28160615    -0.16200
C2479       C  0.70730443  0.85586631  0.27874181    -0.01800
C2480       C  0.69468893  0.87053888  0.28614731    -0.09300
C2481       C  0.65494955  0.83999887  0.31108322     0.65000
H2482       H  0.68251412  0.81571376  0.29457643     0.10400
C2483       C  0.72564131  0.86159836  0.26780091     0.63400
H2484       H  0.69767322  0.88590192  0.28337846     0.07800
F2485       F  0.61615117  0.88913925  0.26541492    -0.19700
F2486       F  0.62206867  0.92137538  0.26640035    -0.15900
F2487       F  0.60074580  0.90761471  0.28740608    -0.19400
F2488       F  0.70113072  0.89447658  0.32091753    -0.22800
F2489       F  0.68406744  0.87260471  0.33846347    -0.24300
F2490       F  0.68330214  0.90446398  0.34624323    -0.18300
F2491       F  0.72373402  0.85681560  0.24858140    -0.20700
F2492       F  0.74172383  0.85168270  0.27545106    -0.21900
F2493       F  0.72904183  0.88156432  0.26892138    -0.19100
F2494       F  0.65378918  0.81982185  0.31346161    -0.19200
F2495       F  0.63838332  0.84642758  0.30133056    -0.23000
F2496       F  0.65508666  0.84835156  0.32917468    -0.24600
C2497       C  0.58644042  0.04097793  0.25317976    -0.11400
C2498       C  0.59828235  0.02514934  0.24724269     0.11200
C2499       C  0.60616918  0.02502923  0.22836117    -0.03200
C2500       C  0.60271611  0.04145978  0.21632684    -0.06000
C2501       C  0.59143268  0.05768228  0.22246801    -0.16700
C2502       C  0.58260508  0.05722873  0.24102892     0.02200
C2503       C  0.60180245  0.00870340  0.26104220     0.12100
C2504       C  0.61815628  0.00764124  0.22099873     0.62800
H2505       H  0.60916068  0.04192997  0.20205041     0.12200
C2506       C  0.56862656  0.07286336  0.24868353     0.54900
H2507       H  0.57999300  0.04055356  0.26749422     0.08000
C2508       C  0.61659921  0.00941224  0.27529753    -0.05800
C2509       C  0.61915349  0.99317982  0.28781917    -0.06600
C2510       C  0.60707541  0.97675423  0.28674500    -0.16200
C2511       C  0.59190880  0.97632351  0.27288980    -0.01800
C2512       C  0.58963182  0.99234324  0.26007959    -0.09300
C2513       C  0.62915811  0.02747155  0.27763921     0.65000
H2514       H  0.63029059  0.99337460  0.29892363     0.10400
C2515       C  0.57802669  0.95919162  0.27191821     0.63400
H2516       H  0.57817335  0.99236682  0.24929436     0.07800
F2517       F  0.57669580  0.08125568  0.26487237    -0.19700
F2518       F  0.55117780  0.06418286  0.25391062    -0.15900
F2519       F  0.56433255  0.08752279  0.23538607    -0.19400
F2520       F  0.60656446  0.99118089  0.22038778    -0.22800
F2521       F  0.63388793  0.00386643  0.23306535    -0.24300
F2522       F  0.62539648  0.01105536  0.20261328    -0.18300
F2523       F  0.56412791  0.96182282  0.25756889    -0.20700
F2524       F  0.56835819  0.95709159  0.28935146    -0.21900
F2525       F  0.58846569  0.94215537  0.26806797    -0.19100
F2526       F  0.64347342  0.02458668  0.29154208    -0.19200
F2527       F  0.61748482  0.04323620  0.28315232    -0.23000
F2528       F  0.63835989  0.03205930  0.26043101    -0.24600
C2529       C  0.92794328  0.54741820  0.13292361    -0.11400
C2530       C  0.91800926  0.54457772  0.11550609     0.11200
C2531       C  0.89819335  0.55096262  0.11382923    -0.03200
C2532       C  0.88890181  0.55968354  0.12989891    -0.06000
C2533       C  0.89877694  0.56213983  0.14742576    -0.16700
C2534       C  0.91888194  0.55665132  0.14874954     0.02200
C2535       C  0.92872366  0.53462422  0.09942087     0.12100
C2536       C  0.88681761  0.54825227  0.09527351     0.62800
H2537       H  0.87353423  0.56383381  0.12918627     0.12200
C2538       C  0.93151463  0.56034607  0.16633612     0.54900
H2539       H  0.94307096  0.54246817  0.13413102     0.08000
C2540       C  0.94279345  0.54449693  0.08798939    -0.05800
C2541       C  0.95243276  0.53409655  0.07319027    -0.06600
C2542       C  0.94849146  0.51429111  0.06941705    -0.16200
C2543       C  0.93455990  0.50434124  0.08093731    -0.01800
C2544       C  0.92504004  0.51469690  0.09593174    -0.09300
C2545       C  0.94773475  0.56588217  0.09143673     0.65000
H2546       H  0.96320588  0.54143612  0.06429524     0.10400
C2547       C  0.93035371  0.48276351  0.07792726     0.63400
H2548       H  0.91460933  0.50729569  0.10515923     0.07800
F2549       F  0.94868512  0.56924564  0.16056906    -0.19700
F2550       F  0.93614517  0.54260084  0.17522256    -0.15900
F2551       F  0.92256370  0.57255818  0.17964959    -0.19400
F2552       F  0.88509102  0.52846032  0.09143395    -0.22800
F2553       F  0.89645992  0.55727262  0.08011686    -0.24300
F2554       F  0.86812017  0.55634404  0.09641251    -0.18300
F2555       F  0.91699434  0.47573634  0.09127275    -0.20700
F2556       F  0.94752554  0.47185903  0.07979477    -0.21900
F2557       F  0.92265656  0.48003059  0.05974407    -0.19100
F2558       F  0.96026520  0.57313527  0.07742990    -0.19200
F2559       F  0.95680916  0.56765772  0.10912053    -0.23000
F2560       F  0.93084834  0.57736391  0.09120778    -0.24600
C2561       C  0.83165882  0.63337547  0.17039313    -0.11400
C2562       C  0.83000708  0.64166829  0.18877628     0.11200
C2563       C  0.84006270  0.63272595  0.20448191    -0.03200
C2564       C  0.85178823  0.61588200  0.20112252    -0.06000
C2565       C  0.85343417  0.60731989  0.18275557    -0.16700
C2566       C  0.84310304  0.61624341  0.16703368     0.02200
C2567       C  0.81665126  0.65899248  0.19153583     0.12100
C2568       C  0.83775955  0.64045196  0.22489551     0.62800
H2569       H  0.85951573  0.60897609  0.21307349     0.12200
C2570       C  0.84331710  0.60743576  0.14697479     0.54900
H2571       H  0.82356022  0.64033525  0.15870656     0.08000
C2572       C  0.82293960  0.67861027  0.18894748    -0.05800
C2573       C  0.81027408  0.69415558  0.19452054    -0.06600
C2574       C  0.79165365  0.69057440  0.20230488    -0.16200
C2575       C  0.78478445  0.67106817  0.20327580    -0.01800
C2576       C  0.79743972  0.65554259  0.19778940    -0.09300
C2577       C  0.84305371  0.68303289  0.18074837     0.65000
H2578       H  0.81515128  0.70921628  0.19366113     0.10400
C2579       C  0.76441028  0.66664034  0.21068912     0.63400
H2580       H  0.79275120  0.64045780  0.19922570     0.07800
F2581       F  0.83028902  0.61705176  0.13470170    -0.19700
F2582       F  0.83804723  0.58789690  0.14799717    -0.15900
F2583       F  0.86181427  0.60889732  0.13898308    -0.19400
F2584       F  0.81874849  0.63767025  0.23113711    -0.22800
F2585       F  0.84182805  0.66027479  0.22542792    -0.24300
F2586       F  0.85025271  0.63085370  0.23770328    -0.18300
F2587       F  0.75937330  0.64735785  0.20718770    -0.20700
F2588       F  0.75077638  0.67878725  0.20161131    -0.21900
F2589       F  0.76361996  0.66973044  0.23035438    -0.19100
F2590       F  0.84607313  0.70305832  0.17905678    -0.19200
F2591       F  0.84490217  0.67494549  0.16260236    -0.23000
F2592       F  0.85746392  0.67513149  0.19259442    -0.24600
C2593       C  0.86109776  0.52291882  0.23607551    -0.11400
C2594       C  0.87914982  0.51357710  0.23990473     0.11200
C2595       C  0.89614062  0.51968171  0.22993041    -0.03200
C2596       C  0.89442167  0.53504853  0.21631550    -0.06000
C2597       C  0.87633174  0.54430667  0.21217286    -0.16700
C2598       C  0.85933142  0.53833876  0.22240850     0.02200
C2599       C  0.87965069  0.49648370  0.25342471     0.12100
C2600       C  0.91593486  0.50970013  0.23333653     0.62800
H2601       H  0.90726747  0.53971893  0.20841629     0.12200
C2602       C  0.83930344  0.54754137  0.21849813     0.54900
H2603       H  0.84829406  0.51773366  0.24371446     0.08000
C2604       C  0.88076242  0.49867608  0.27365177    -0.05800
C2605       C  0.88271538  0.48170455  0.28530298    -0.06600
C2606       C  0.88292429  0.46271224  0.27743746    -0.16200
C2607       C  0.88081538  0.46056975  0.25712297    -0.01800
C2608       C  0.87919449  0.47762150  0.24553471    -0.09300
C2609       C  0.87971273  0.51882802  0.28285810     0.65000
H2610       H  0.88389063  0.48315909  0.30079915     0.10400
C2611       C  0.88075416  0.44059782  0.24743037     0.63400
H2612       H  0.87776357  0.47643649  0.23002958     0.07800
F2613       F  0.82463628  0.53815773  0.22869000    -0.19700
F2614       F  0.83494868  0.54633733  0.19906581    -0.15900
F2615       F  0.83916180  0.56703013  0.22398588    -0.19400
F2616       F  0.91523114  0.49023393  0.22789003    -0.22800
F2617       F  0.92081383  0.51057564  0.25264671    -0.24300
F2618       F  0.93069296  0.51856384  0.22282184    -0.18300
F2619       F  0.86384221  0.43076250  0.25228476    -0.20700
F2620       F  0.89696123  0.42957754  0.25314739    -0.21900
F2621       F  0.88133756  0.44227772  0.22750949    -0.19100
F2622       F  0.88115570  0.51765978  0.30275966    -0.19200
F2623       F  0.86201630  0.52789416  0.27839323    -0.23000
F2624       F  0.89479653  0.53033022  0.27607737    -0.24600
C2625       C  0.53264056  0.07383186  0.09998424    -0.11400
C2626       C  0.55310873  0.07524525  0.10105726     0.11200
C2627       C  0.56474817  0.06962063  0.08502387    -0.03200
C2628       C  0.55550946  0.06142144  0.06894657    -0.06000
C2629       C  0.53516515  0.05863601  0.06842563    -0.16700
C2630       C  0.52336890  0.06590609  0.08372047     0.02200
C2631       C  0.56203185  0.07934301  0.12013205     0.12100
C2632       C  0.58689133  0.07177678  0.08505467     0.62800
H2633       H  0.56431188  0.05615159  0.05698799     0.12200
C2634       C  0.50117264  0.06553848  0.08285889     0.54900
H2635       H  0.52399598  0.07806379  0.11243588     0.08000
C2636       C  0.56258948  0.09828143  0.12837324    -0.05800
C2637       C  0.57052889  0.10022410  0.14704742    -0.06600
C2638       C  0.57805671  0.08392090  0.15749498    -0.16200
C2639       C  0.57844648  0.06515456  0.14854738    -0.01800
C2640       C  0.56971105  0.06319657  0.13038243    -0.09300
C2641       C  0.55474011  0.11625374  0.11758453     0.65000
H2642       H  0.57050642  0.11450788  0.15380295     0.10400
C2643       C  0.58845508  0.04715628  0.15749728     0.63400
H2644       H  0.56887187  0.04881616  0.12386255     0.07800
F2645       F  0.49271506  0.07681698  0.09727306    -0.19700
F2646       F  0.49474890  0.04649103  0.08504767    -0.15900
F2647       F  0.49482167  0.07305522  0.06530675    -0.19400
F2648       F  0.59531340  0.05910148  0.09845154    -0.22800
F2649       F  0.59164556  0.09085250  0.08958538    -0.24300
F2650       F  0.59500389  0.06757019  0.06720991    -0.18300
F2651       F  0.57676582  0.03941905  0.17191232    -0.20700
F2652       F  0.60647142  0.05211223  0.16496939    -0.21900
F2653       F  0.59180942  0.03260963  0.14397936    -0.19100
F2654       F  0.55801647  0.13340726  0.12759559    -0.19200
F2655       F  0.53479094  0.11464674  0.11485101    -0.23000
F2656       F  0.56383583  0.11785117  0.09981583    -0.24600
C2657       C  0.62264131  0.90811326  0.93581687    -0.11400
C2658       C  0.62483500  0.92706149  0.92797270     0.11200
C2659       C  0.64202877  0.93166016  0.91743883    -0.03200
C2660       C  0.65709395  0.91734675  0.91628052    -0.06000
C2661       C  0.65501336  0.89871995  0.92474726    -0.16700
C2662       C  0.63729307  0.89359712  0.93381176     0.02200
C2663       C  0.61005523  0.94218000  0.93356301     0.12100
C2664       C  0.64442914  0.95145642  0.90746322     0.62800
H2665       H  0.67077100  0.92068109  0.90909361     0.12200
C2666       C  0.63410866  0.87287691  0.94136323     0.54900
H2667       H  0.60951850  0.90493848  0.94401360     0.08000
C2668       C  0.59054764  0.94216731  0.92666377    -0.05800
C2669       C  0.57641173  0.95411818  0.93591738    -0.06600
C2670       C  0.58125903  0.96575953  0.95180813    -0.16200
C2671       C  0.60118781  0.96717311  0.95735538    -0.01800
C2672       C  0.61515413  0.95495995  0.94839314    -0.09300
C2673       C  0.58461969  0.92924987  0.90996946     0.65000
H2674       H  0.56123091  0.95355514  0.93151793     0.10400
C2675       C  0.60788001  0.98111555  0.97290767     0.63400
H2676       H  0.63010692  0.95459825  0.95362486     0.07800
F2677       F  0.61565237  0.87077177  0.94934944    -0.19700
F2678       F  0.64786944  0.86819726  0.95535005    -0.15900
F2679       F  0.63598711  0.85974664  0.92632304    -0.19400
F2680       F  0.64482592  0.96632020  0.92088386    -0.22800
F2681       F  0.62897965  0.95488218  0.89497269    -0.24300
F2682       F  0.66161291  0.95216298  0.89683862    -0.18300
F2683       F  0.60398917  0.97317339  0.99090957    -0.20700
F2684       F  0.59834652  0.99911904  0.97097767    -0.21900
F2685       F  0.62781729  0.98440391  0.97164068    -0.19100
F2686       F  0.56544626  0.93291785  0.90439496    -0.19200
F2687       F  0.58629389  0.90964364  0.91516164    -0.23000
F2688       F  0.59656959  0.93278968  0.89424162    -0.24600
C2689       C  0.48240827  0.94405420  0.89776664    -0.11400
C2690       C  0.46208044  0.94167823  0.89820824     0.11200
C2691       C  0.45186550  0.94290595  0.91593176    -0.03200
C2692       C  0.46207513  0.94900159  0.93237432    -0.06000
C2693       C  0.48219685  0.95314363  0.93163624    -0.16700
C2694       C  0.49280806  0.94930438  0.91438700     0.02200
C2695       C  0.45168084  0.93816776  0.87986916     0.12100
C2696       C  0.43027629  0.93788308  0.91731926     0.62800
H2697       H  0.45419115  0.95131173  0.94575728     0.12200
C2698       C  0.51496656  0.95049834  0.91336695     0.54900
H2699       H  0.49003722  0.94222471  0.88415861     0.08000
C2700       C  0.44384160  0.95387303  0.86869296    -0.05800
C2701       C  0.43226353  0.94946250  0.85262556    -0.06600
C2702       C  0.42863897  0.92995252  0.84720070    -0.16200
C2703       C  0.43768453  0.91425340  0.85778526    -0.01800
C2704       C  0.44906360  0.91875174  0.87403078    -0.09300
C2705       C  0.44789332  0.97517285  0.87363359     0.65000
H2706       H  0.42568034  0.96137060  0.84430274     0.10400
C2707       C  0.43569709  0.89287420  0.85208039     0.63400
H2708       H  0.45559970  0.90708389  0.88272410     0.07800
F2709       F  0.52237505  0.93988225  0.89797693    -0.19700
F2710       F  0.52329965  0.94280441  0.93004151    -0.15900
F2711       F  0.52042181  0.96982560  0.91103121    -0.19400
F2712       F  0.42760179  0.91879355  0.91129773    -0.22800
F2713       F  0.41923253  0.95045147  0.90577277    -0.24300
F2714       F  0.42331095  0.93932970  0.93602601    -0.18300
F2715       F  0.43988086  0.89071083  0.83267134    -0.20700
F2716       F  0.41688397  0.88668562  0.85582568    -0.21900
F2717       F  0.44844105  0.88068526  0.86232327    -0.19100
F2718       F  0.43876314  0.98817450  0.86092531    -0.19200
F2719       F  0.46782958  0.97836119  0.87278300    -0.23000
F2720       F  0.44125203  0.97938557  0.89200393    -0.24600
C2721       C  0.55539460  0.10139765  0.88045349    -0.11400
C2722       C  0.56898166  0.09855884  0.89540582     0.11200
C2723       C  0.58594884  0.11020206  0.89607610    -0.03200
C2724       C  0.58745958  0.12614190  0.88313308    -0.06000
C2725       C  0.57271004  0.13031186  0.86960497    -0.16700
C2726       C  0.55699109  0.11723839  0.86741550     0.02200
C2727       C  0.56388044  0.08483042  0.91128482     0.12100
C2728       C  0.60215702  0.10589284  0.91052745     0.62800
H2729       H  0.59970580  0.13602341  0.88406939     0.12200
C2730       C  0.54193641  0.12020274  0.85154708     0.54900
H2731       H  0.54285488  0.09185608  0.87986378     0.08000
C2732       C  0.55190309  0.09108347  0.92682199    -0.05800
C2733       C  0.54706382  0.07740677  0.94127425    -0.06600
C2734       C  0.55317990  0.05764129  0.94033700    -0.16200
C2735       C  0.56528075  0.05137930  0.92472418    -0.01800
C2736       C  0.57046992  0.06525855  0.91044236    -0.09300
C2737       C  0.54379057  0.11201071  0.92783695     0.65000
H2738       H  0.53765225  0.08190151  0.95308830     0.10400
C2739       C  0.57312232  0.03040062  0.92323945     0.63400
H2740       H  0.57947423  0.06090343  0.89827975     0.07800
F2741       F  0.53078414  0.13692427  0.85504661    -0.19700
F2742       F  0.52945151  0.10441281  0.85035810    -0.15900
F2743       F  0.55134827  0.12221733  0.83395356    -0.19400
F2744       F  0.60967040  0.08718396  0.90749383    -0.22800
F2745       F  0.59497076  0.10701224  0.92914769    -0.24300
F2746       F  0.61734400  0.11904224  0.90870824    -0.18300
F2747       F  0.55805205  0.01770420  0.91938676    -0.20700
F2748       F  0.58210295  0.02488810  0.94035647    -0.21900
F2749       F  0.58680287  0.02846895  0.90856780    -0.19100
F2750       F  0.53261961  0.11500072  0.94427259    -0.19200
F2751       F  0.53199935  0.11592357  0.91203291    -0.23000
F2752       F  0.55895035  0.12523335  0.92799371    -0.24600
C2753       C  0.13810985  0.18246091  0.68207832    -0.11400
C2754       C  0.13413619  0.19418970  0.69819125     0.11200
C2755       C  0.11455936  0.19976265  0.70247368    -0.03200
C2756       C  0.09959385  0.19385496  0.68997926    -0.06000
C2757       C  0.10359511  0.18308804  0.67314535    -0.16700
C2758       C  0.12318171  0.17681619  0.66932848     0.02200
C2759       C  0.15092580  0.20348516  0.70797658     0.12100
C2760       C  0.10960363  0.21272814  0.71963251     0.62800
H2761       H  0.08461053  0.19845658  0.69280360     0.12200
C2762       C  0.12862411  0.16527993  0.65137852     0.54900
H2763       H  0.15326112  0.17869056  0.67900131     0.08000
C2764       C  0.16182486  0.19428256  0.72294293    -0.05800
C2765       C  0.17734602  0.20464755  0.73134444    -0.06600
C2766       C  0.18235467  0.22371254  0.72509769    -0.16200
C2767       C  0.17156302  0.23258783  0.70964316    -0.01800
C2768       C  0.15615661  0.22216143  0.70136429    -0.09300
C2769       C  0.15741655  0.17349094  0.72961462     0.65000
H2770       H  0.18578573  0.19784532  0.74288193     0.10400
C2771       C  0.17605470  0.25287911  0.70161426     0.63400
H2772       H  0.14769135  0.22866151  0.68966810     0.07800
F2773       F  0.12002325  0.14701823  0.65212066    -0.19700
F2774       F  0.14866596  0.16231704  0.64974856    -0.15900
F2775       F  0.12234475  0.17539187  0.63505777    -0.19400
F2776       F  0.11778380  0.23103450  0.71714584    -0.22800
F2777       F  0.11683283  0.20430146  0.73641822    -0.24300
F2778       F  0.08958244  0.21535908  0.72187856    -0.18300
F2779       F  0.16568908  0.25707396  0.68487578    -0.20700
F2780       F  0.19577311  0.25415624  0.69724422    -0.21900
F2781       F  0.17085931  0.26689584  0.71506282    -0.19100
F2782       F  0.16918507  0.16763479  0.74493198    -0.19200
F2783       F  0.16064366  0.16061396  0.71459507    -0.23000
F2784       F  0.13812918  0.17219524  0.73548485    -0.24600
C2785       C  0.30994001  0.14822228  0.74157300    -0.11400
C2786       C  0.32798159  0.15188258  0.73259571     0.11200
C2787       C  0.33402868  0.17148450  0.72982388    -0.03200
C2788       C  0.32181060  0.18684886  0.73641108    -0.06000
C2789       C  0.30366132  0.18338337  0.74546525    -0.16700
C2790       C  0.29764096  0.16363503  0.74820321     0.02200
C2791       C  0.34016878  0.13494671  0.72583780     0.12100
C2792       C  0.35329406  0.17615518  0.71983786     0.62800
H2793       H  0.32626301  0.20189416  0.73413145     0.12200
C2794       C  0.27843406  0.15862819  0.75794336     0.54900
H2795       H  0.30548330  0.13308245  0.74317986     0.08000
C2796       C  0.35281812  0.12429616  0.73839114    -0.05800
C2797       C  0.36476850  0.10922014  0.73072759    -0.06600
C2798       C  0.36434896  0.10436094  0.71104421    -0.16200
C2799       C  0.35117378  0.11470611  0.69858808    -0.01800
C2800       C  0.33923994  0.12980404  0.70631983    -0.09300
C2801       C  0.35351470  0.12873416  0.75981765     0.65000
H2802       H  0.37461660  0.10102978  0.74015255     0.10400
C2803       C  0.34912777  0.10953209  0.67742553     0.63400
H2804       H  0.32917359  0.13798842  0.69710985     0.07800
F2805       F  0.27756426  0.13886131  0.76277172    -0.19700
F2806       F  0.26317854  0.16296691  0.74551703    -0.15900
F2807       F  0.27612517  0.16924866  0.77472410    -0.19400
F2808       F  0.35307659  0.16934825  0.70111817    -0.22800
F2809       F  0.36870347  0.16725845  0.72963959    -0.24300
F2810       F  0.35663737  0.19616656  0.71909633    -0.18300
F2811       F  0.33384237  0.11982113  0.66869848    -0.20700
F2812       F  0.34545108  0.08969380  0.67571901    -0.21900
F2813       F  0.36612618  0.11407421  0.66757989    -0.19100
F2814       F  0.36719507  0.11701068  0.76937225    -0.19200
F2815       F  0.33539299  0.12537873  0.76803710    -0.23000
F2816       F  0.35839156  0.14814218  0.76260078    -0.24600
C2817       C  0.35214900  0.31275976  0.81473999    -0.11400
C2818       C  0.37042986  0.30802595  0.80661499     0.11200
C2819       C  0.37134143  0.30107121  0.78741799    -0.03200
C2820       C  0.35368817  0.29780689  0.77749611    -0.06000
C2821       C  0.33531817  0.30157106  0.78601260    -0.16700
C2822       C  0.33452071  0.30999843  0.80466513     0.02200
C2823       C  0.38783859  0.30797066  0.81960119     0.12100
C2824       C  0.39080302  0.29644559  0.77768572     0.62800
H2825       H  0.35406582  0.29141596  0.76324014     0.12200
C2826       C  0.31520948  0.31531259  0.81430497     0.54900
H2827       H  0.35179628  0.31792115  0.82947172     0.08000
C2828       C  0.39715749  0.32536591  0.82546220    -0.05800
C2829       C  0.41216730  0.32398179  0.83945064    -0.06600
C2830       C  0.41824960  0.30581888  0.84756473    -0.16200
C2831       C  0.40892912  0.28835966  0.84139703    -0.01800
C2832       C  0.39377628  0.28989612  0.82767219    -0.09300
C2833       C  0.39128782  0.34524851  0.81692141     0.65000
H2834       H  0.41937807  0.33717448  0.84411444     0.10400
C2835       C  0.41427811  0.26814765  0.84955282     0.63400
H2836       H  0.38614235  0.27687579  0.82318415     0.07800
F2837       F  0.30546125  0.32935215  0.80330792    -0.19700
F2838       F  0.31785402  0.32301896  0.83251417    -0.15900
F2839       F  0.30378448  0.29881588  0.81618332    -0.19400
F2840       F  0.39976003  0.28047695  0.78664656    -0.22800
F2841       F  0.40297625  0.31242368  0.77879101    -0.24300
F2842       F  0.38843028  0.29207327  0.75836681    -0.18300
F2843       F  0.41366107  0.26849134  0.86949582    -0.20700
F2844       F  0.43283084  0.26261168  0.84344505    -0.21900
F2845       F  0.40147687  0.25388133  0.84348545    -0.19100
F2846       F  0.40283148  0.36016424  0.82382682    -0.19200
F2847       F  0.37202511  0.34968698  0.82150143    -0.23000
F2848       F  0.39325349  0.34492692  0.79708291    -0.24600
C2849       C  0.16959520  0.65000307  0.66282929    -0.11400
C2850       C  0.17130787  0.65837542  0.68115924     0.11200
C2851       C  0.16033557  0.65060497  0.69676855    -0.03200
C2852       C  0.14780291  0.63475019  0.69337220    -0.06000
C2853       C  0.14591668  0.62637983  0.67499384    -0.16700
C2854       C  0.15737822  0.63382228  0.65951160     0.02200
C2855       C  0.18444922  0.67549190  0.68370102     0.12100
C2856       C  0.16189014  0.65903123  0.71695551     0.62800
H2857       H  0.13919338  0.62880696  0.70513753     0.12200
C2858       C  0.15738864  0.62432796  0.63977643     0.54900
H2859       H  0.17802025  0.65625775  0.65109210     0.08000
C2860       C  0.20490826  0.67318153  0.68651337    -0.05800
C2861       C  0.21584931  0.68970786  0.69175414    -0.06600
C2862       C  0.20694060  0.70823769  0.69446400    -0.16200
C2863       C  0.18681631  0.71086723  0.68982184    -0.01800
C2864       C  0.17594702  0.69437924  0.68434225    -0.09300
C2865       C  0.21497996  0.65321982  0.68475805     0.65000
H2866       H  0.23128840  0.68798607  0.69504383     0.10400
C2867       C  0.17676578  0.73088064  0.69068794     0.63400
H2868       H  0.16039791  0.69591488  0.68149756     0.07800
F2869       F  0.17215902  0.63150705  0.62808682    -0.19700
F2870       F  0.13969951  0.62809152  0.63069845    -0.15900
F2871       F  0.16031959  0.60422310  0.64167352    -0.19400
F2872       F  0.15519038  0.67830410  0.71695163    -0.22800
F2873       F  0.18117546  0.65843335  0.72300970    -0.24300
F2874       F  0.15090078  0.64859152  0.73024598    -0.18300
F2875       F  0.15851152  0.73076960  0.68199693    -0.20700
F2876       F  0.18799638  0.74467345  0.68116918    -0.21900
F2877       F  0.17423515  0.73637931  0.70966929    -0.19100
F2878       F  0.23494303  0.65426152  0.68798860    -0.19200
F2879       F  0.21228878  0.64595610  0.66641756    -0.23000
F2880       F  0.20722251  0.64023386  0.69807842    -0.24600
C2881       C  0.09516453  0.45666992  0.86985108    -0.11400
C2882       C  0.07752296  0.46718870  0.86730202     0.11200
C2883       C  0.07302795  0.47548105  0.84901939    -0.03200
C2884       C  0.08582792  0.47177233  0.83351532    -0.06000
C2885       C  0.10344199  0.46099173  0.83585036    -0.16700
C2886       C  0.10850739  0.45373677  0.85454249     0.02200
C2887       C  0.06524393  0.47122884  0.88460768     0.12100
C2888       C  0.05502585  0.48856141  0.84596268     0.62800
H2889       H  0.08221957  0.47756938  0.81934181     0.12200
C2890       C  0.12819634  0.44391173  0.85878295     0.54900
H2891       H  0.09860495  0.45116467  0.88418147     0.08000
C2892       C  0.05118214  0.45789427  0.89173175    -0.05800
C2893       C  0.04013949  0.46308531  0.90820160    -0.06600
C2894       C  0.04357130  0.48056199  0.91826113    -0.16200
C2895       C  0.05807129  0.49362825  0.91127720    -0.01800
C2896       C  0.06858479  0.48867940  0.89451320    -0.09300
C2897       C  0.04853744  0.43795931  0.88250433     0.65000
H2898       H  0.02926845  0.45311635  0.91384546     0.10400
C2899       C  0.06266605  0.51271858  0.92136773     0.63400
H2900       H  0.07984866  0.49832527  0.88907090     0.07800
F2901       F  0.13141510  0.44179210  0.87841908    -0.19700
F2902       F  0.14318777  0.45513974  0.85129681    -0.15900
F2903       F  0.12891257  0.42541566  0.85075913    -0.19400
F2904       F  0.05584999  0.50472678  0.85784789    -0.22800
F2905       F  0.03828738  0.47818559  0.85015385    -0.24300
F2906       F  0.05366986  0.49540813  0.82712505    -0.18300
F2907       F  0.07411907  0.52483911  0.90999820    -0.20700
F2908       F  0.07284572  0.50860523  0.93818096    -0.21900
F2909       F  0.04553395  0.52293007  0.92561743    -0.19100
F2910       F  0.03376276  0.42742395  0.89134207    -0.19200
F2911       F  0.06574710  0.42708541  0.88410102    -0.23000
F2912       F  0.04387747  0.44022228  0.86321145    -0.24600
C2913       C  0.15880252  0.38855363  0.79279485    -0.11400
C2914       C  0.17846304  0.39222178  0.78818199     0.11200
C2915       C  0.18502830  0.41187084  0.78758111    -0.03200
C2916       C  0.17169364  0.42719990  0.79196991    -0.06000
C2917       C  0.15199573  0.42360489  0.79648969    -0.16700
C2918       C  0.14534063  0.40394023  0.79688064     0.02200
C2919       C  0.19128317  0.37535095  0.78221305     0.12100
C2920       C  0.20582330  0.41671709  0.78158432     0.62800
H2921       H  0.17648557  0.44229253  0.79149216     0.12200
C2922       C  0.12398137  0.39924088  0.80061071     0.54900
H2923       H  0.15398070  0.37346397  0.79270162     0.08000
C2924       C  0.20068700  0.36250652  0.79565015    -0.05800
C2925       C  0.21224493  0.34671637  0.78864023    -0.06600
C2926       C  0.21409244  0.34307884  0.76880782    -0.16200
C2927       C  0.20469172  0.35592737  0.75542454    -0.01800
C2928       C  0.19343666  0.37187964  0.76240107    -0.09300
C2929       C  0.19813370  0.36515228  0.81724235     0.65000
H2930       H  0.21939247  0.33660314  0.79863499     0.10400
C2931       C  0.20661005  0.35284732  0.73386937     0.63400
H2932       H  0.18590712  0.38169917  0.75240017     0.07800
F2933       F  0.12019669  0.37954603  0.79776350    -0.19700
F2934       F  0.11212753  0.41012616  0.78821453    -0.15900
F2935       F  0.11910179  0.40365582  0.81943678    -0.19400
F2936       F  0.20851918  0.41225841  0.76233961    -0.22800
F2937       F  0.21911953  0.40594922  0.79254976    -0.24300
F2938       F  0.20975993  0.43645286  0.78396102    -0.18300
F2939       F  0.19756146  0.36784415  0.72339420    -0.20700
F2940       F  0.19799045  0.33538368  0.72891269    -0.21900
F2941       F  0.22620093  0.35220655  0.72874076    -0.19100
F2942       F  0.20900483  0.35141188  0.82770661    -0.19200
F2943       F  0.17865165  0.36300282  0.82217592    -0.23000
F2944       F  0.20410696  0.38365361  0.82252222    -0.24600
C2945       C  0.14351256  0.51072908  0.75110773    -0.11400
C2946       C  0.12612214  0.52167722  0.74882472     0.11200
C2947       C  0.10939076  0.51665049  0.75977473    -0.03200
C2948       C  0.11071446  0.50062484  0.77278149    -0.06000
C2949       C  0.12807484  0.48930948  0.77494825    -0.16700
C2950       C  0.14492305  0.49468688  0.76407117     0.02200
C2951       C  0.12522101  0.53675087  0.73315332     0.12100
C2952       C  0.09016404  0.52803613  0.75745643     0.62800
H2953       H  0.09794666  0.49655624  0.78111600     0.12200
C2954       C  0.16444033  0.48383858  0.76605122     0.54900
H2955       H  0.15593286  0.51461709  0.74218091     0.08000
C2956       C  0.13169887  0.55620512  0.73550818    -0.05800
C2957       C  0.12944356  0.56959121  0.72001537    -0.06600
C2958       C  0.12190844  0.56396444  0.70195995    -0.16200
C2959       C  0.11671605  0.54391797  0.69936073    -0.01800
C2960       C  0.11828582  0.53083762  0.71516856    -0.09300
C2961       C  0.14139531  0.56266734  0.75407436     0.65000
H2962       H  0.13379460  0.58467089  0.72194782     0.10400
C2963       C  0.11008023  0.53584274  0.68010278     0.63400
H2964       H  0.11404252  0.51564968  0.71368747     0.07800
F2965       F  0.16953599  0.48216114  0.78531152    -0.19700
F2966       F  0.17937764  0.49361837  0.75665943    -0.15900
F2967       F  0.16313449  0.46536299  0.75804481    -0.19400
F2968       F  0.08342527  0.52646641  0.73875224    -0.22800
F2969       F  0.09289011  0.54765719  0.76149512    -0.24300
F2970       F  0.07578059  0.52106723  0.76972965    -0.18300
F2971       F  0.12349797  0.54050154  0.66585262    -0.20700
F2972       F  0.09184678  0.54357431  0.67540342    -0.21900
F2973       F  0.10854860  0.51556532  0.68057564    -0.19100
F2974       F  0.14697964  0.58214177  0.75315886    -0.19200
F2975       F  0.15801041  0.55129554  0.75746695    -0.23000
F2976       F  0.12866562  0.56055337  0.76944284    -0.24600
C2977       C  0.24761883  0.17254510  0.84042215    -0.11400
C2978       C  0.22837488  0.16959832  0.84677227     0.11200
C2979       C  0.21273687  0.18006411  0.83777119    -0.03200
C2980       C  0.21693020  0.19283148  0.82220196    -0.06000
C2981       C  0.23622415  0.19599369  0.81599247    -0.16700
C2982       C  0.25191752  0.18573981  0.82528796     0.02200
C2983       C  0.22511728  0.15642976  0.86370732     0.12100
C2984       C  0.19190058  0.17866510  0.84538839     0.62800
H2985       H  0.20523048  0.20126506  0.81537162     0.12200
C2986       C  0.27343429  0.18847345  0.82043402     0.54900
H2987       H  0.25949860  0.16476254  0.84770876     0.08000
C2988       C  0.22151348  0.13612307  0.86170168    -0.05800
C2989       C  0.21689212  0.12499935  0.87830624    -0.06600
C2990       C  0.21682165  0.13332461  0.89678719    -0.16200
C2991       C  0.22147504  0.15346108  0.89885885    -0.01800
C2992       C  0.22543156  0.16470124  0.88215724    -0.09300
C2993       C  0.22314460  0.12620009  0.84220373     0.65000
H2994       H  0.21358563  0.10954523  0.87703584     0.10400
C2995       C  0.22156835  0.16327540  0.91846008     0.63400
H2996       H  0.22860671  0.18019594  0.88329692     0.07800
F2997       F  0.28190747  0.17040317  0.81624623    -0.19700
F2998       F  0.28282776  0.19616400  0.83626729    -0.15900
F2999       F  0.27651805  0.20084983  0.80484423    -0.19400
F3000       F  0.19098974  0.18626094  0.86380476    -0.22800
F3001       F  0.18604320  0.15932423  0.84603330    -0.24300
F3002       F  0.17874500  0.18910080  0.83391767    -0.18300
F3003       F  0.23650598  0.15540370  0.92965821    -0.20700
F3004       F  0.20382506  0.16043438  0.92766979    -0.21900
F3005       F  0.22449711  0.18331935  0.91691104    -0.19100
F3006       F  0.21868229  0.10644143  0.84337381    -0.19200
F3007       F  0.24210721  0.12776059  0.83538188    -0.23000
F3008       F  0.21051098  0.13501462  0.82907754    -0.24600
C3009       C  0.36742489  0.04584019  0.06195518    -0.11400
C3010       C  0.38312087  0.05236004  0.07300372     0.11200
C3011       C  0.37959753  0.06549275  0.08836442    -0.03200
C3012       C  0.36046934  0.07294999  0.09105143    -0.06000
C3013       C  0.34482217  0.06735290  0.07916081    -0.16700
C3014       C  0.34814535  0.05236600  0.06533877     0.02200
C3015       C  0.40313719  0.04676682  0.06662142     0.12100
C3016       C  0.39603585  0.07243756  0.10124288     0.62800
H3017       H  0.35792032  0.08400290  0.10193214     0.12200
C3018       C  0.33175747  0.04303700  0.05406178     0.54900
H3019       H  0.37046018  0.03598884  0.05008954     0.08000
C3020       C  0.41073474  0.02732637  0.06839644    -0.05800
C3021       C  0.42893905  0.02287912  0.05981375    -0.06600
C3022       C  0.43939359  0.03714029  0.04947747    -0.16200
C3023       C  0.43228370  0.05676947  0.04865892    -0.01800
C3024       C  0.41397105  0.06111928  0.05687321    -0.09300
C3025       C  0.39954516  0.01127537  0.07886503     0.65000
H3026       H  0.43467907  0.00794043  0.06023135     0.10400
C3027       C  0.44316951  0.07324413  0.03861476     0.63400
H3028       H  0.40777340  0.07581264  0.05525772     0.07800
F3029       F  0.33761176  0.02503202  0.04665611    -0.19700
F3030       F  0.32634564  0.05515854  0.03881739    -0.15900
F3031       F  0.31579475  0.03976379  0.06594246    -0.19400
F3032       F  0.40711287  0.08615165  0.09145809    -0.22800
F3033       F  0.40797150  0.05674952  0.10670746    -0.24300
F3034       F  0.38879370  0.08104688  0.11788005    -0.18300
F3035       F  0.43600534  0.07563445  0.02009498    -0.20700
F3036       F  0.46312398  0.06951286  0.03779395    -0.21900
F3037       F  0.44042070  0.09067036  0.04848712    -0.19100
F3038       F  0.41064295  0.99415323  0.08074384    -0.19200
F3039       F  0.38277130  0.00682989  0.06878865    -0.23000
F3040       F  0.39441124  0.01748471  0.09714924    -0.24600
C3041       C  0.26009948  0.10156840  0.97928099    -0.11400
C3042       C  0.25027097  0.09970367  0.99697133     0.11200
C3043       C  0.22954145  0.10062960  0.99739465    -0.03200
C3044       C  0.21933895  0.10340739  0.97991921    -0.06000
C3045       C  0.22910189  0.10515350  0.96208236    -0.16700
C3046       C  0.24991895  0.10387031  0.96170319     0.02200
C3047       C  0.26215392  0.09733847  0.01488584     0.12100
C3048       C  0.21823365  0.09851500  0.01620404     0.62800
H3049       H  0.20349137  0.10433148  0.98009258     0.12200
C3050       C  0.26147162  0.10415044  0.94294250     0.54900
H3051       H  0.27596415  0.10114582  0.97938667     0.08000
C3052       C  0.27117411  0.07922499  0.02025115    -0.05800
C3053       C  0.28209870  0.07821623  0.03744738    -0.06600
C3054       C  0.28445115  0.09465185  0.04933055    -0.16200
C3055       C  0.27544482  0.11286196  0.04382624    -0.01800
C3056       C  0.26462602  0.11383784  0.02653555    -0.09300
C3057       C  0.26940029  0.06106248  0.00782826     0.65000
H3058       H  0.28892390  0.06441955  0.04179608     0.10400
C3059       C  0.27751013  0.13137667  0.05569340     0.63400
H3060       H  0.25785448  0.12758581  0.02190762     0.07800
F3061       F  0.25388485  0.09067782  0.93024637    -0.19700
F3062       F  0.28101810  0.09927564  0.94582482    -0.15900
F3063       F  0.26061161  0.12272776  0.93474722    -0.19400
F3064       F  0.22239899  0.11393203  0.02828688    -0.22800
F3065       F  0.22339799  0.08100075  0.02525462    -0.24300
F3066       F  0.19818476  0.09855370  0.01321819    -0.18300
F3067       F  0.29710467  0.13498526  0.05886677    -0.20700
F3068       F  0.26791384  0.12918182  0.07315216    -0.21900
F3069       F  0.26946986  0.14772674  0.04645930    -0.19100
F3070       F  0.27805388  0.04466575  0.01643726    -0.19200
F3071       F  0.27854085  0.06415462  0.99027598    -0.23000
F3072       F  0.24988427  0.05703509  0.00471408    -0.24600
C3073       C  0.48474702  0.54958366  0.38292289    -0.11400
C3074       C  0.46913144  0.56318385  0.38379308     0.11200
C3075       C  0.46352842  0.57117123  0.40176653    -0.03200
C3076       C  0.47334493  0.56459064  0.41844895    -0.06000
C3077       C  0.48794113  0.54969030  0.41797002    -0.16700
C3078       C  0.49444944  0.54269604  0.39969329     0.02200
C3079       C  0.45705514  0.56644825  0.36621632     0.12100
C3080       C  0.44661789  0.58589864  0.40348764     0.62800
H3081       H  0.46885790  0.57041720  0.43227648     0.12200
C3082       C  0.51091157  0.52756339  0.39765967     0.54900
H3083       H  0.48859732  0.54363717  0.36895867     0.08000
C3084       C  0.46221795  0.57971175  0.35124671    -0.05800
C3085       C  0.44943526  0.58209268  0.33541477    -0.06600
C3086       C  0.43229192  0.57108472  0.33391195    -0.16200
C3087       C  0.42742234  0.55748583  0.34868351    -0.01800
C3088       C  0.44001862  0.55535426  0.36457460    -0.09300
C3089       C  0.48124484  0.59093387  0.35182253     0.65000
H3090       H  0.45289368  0.59230891  0.32386395     0.10400
C3091       C  0.40880309  0.54559383  0.34791711     0.63400
H3092       H  0.43664651  0.54498333  0.37602106     0.07800
F3093       F  0.52802672  0.53494498  0.40516570    -0.19700
F3094       F  0.51448845  0.52289087  0.37855717    -0.15900
F3095       F  0.50608230  0.51041239  0.40729932    -0.19400
F3096       F  0.42930025  0.57725910  0.39811754    -0.22800
F3097       F  0.44990653  0.60199545  0.39168544    -0.24300
F3098       F  0.44432325  0.59256646  0.42218579    -0.18300
F3099       F  0.40985570  0.53257028  0.33278070    -0.20700
F3100       F  0.39277297  0.55803519  0.34539926    -0.21900
F3101       F  0.40593021  0.53481674  0.36470497    -0.19100
F3102       F  0.48322027  0.60329261  0.33597075    -0.19200
F3103       F  0.49693115  0.57784086  0.35188418    -0.23000
F3104       F  0.48193744  0.60223520  0.36825729    -0.24600
C3105       C  0.67318139  0.40459485  0.71567875    -0.11400
C3106       C  0.66689932  0.38599760  0.71022576     0.11200
C3107       C  0.64837560  0.38404350  0.70132969    -0.03200
C3108       C  0.63666481  0.40101952  0.69826838    -0.06000
C3109       C  0.64273980  0.41968476  0.70410100    -0.16700
C3110       C  0.66163980  0.42160666  0.71254128     0.02200
C3111       C  0.67970373  0.36879611  0.71514134     0.12100
C3112       C  0.64087229  0.36409361  0.69541478     0.62800
H3113       H  0.62228796  0.39970812  0.69190538     0.12200
C3114       C  0.66999774  0.44135224  0.71814201     0.54900
H3115       H  0.68721221  0.40560526  0.72284143     0.08000
C3116       C  0.69662284  0.36386496  0.70426846    -0.05800
C3117       C  0.70789957  0.34727970  0.70986376    -0.06600
C3118       C  0.70311762  0.33587847  0.72619819    -0.16200
C3119       C  0.68680853  0.34164884  0.73774890    -0.01800
C3120       C  0.67534819  0.35800984  0.73188184    -0.09300
C3121       C  0.70289758  0.37622163  0.68702816     0.65000
H3122       H  0.72057947  0.34300952  0.70138363     0.10400
C3123       C  0.68170150  0.33109963  0.75646117     0.63400
H3124       H  0.66274998  0.36257549  0.74035064     0.07800
F3125       F  0.68991258  0.43997694  0.72180683    -0.19700
F3126       F  0.66093080  0.44812009  0.73470705    -0.15900
F3127       F  0.66731963  0.45485975  0.70329946    -0.19400
F3128       F  0.63862472  0.35222379  0.71153272    -0.22800
F3129       F  0.65402274  0.35524140  0.68290016    -0.24300
F3130       F  0.62290965  0.36560975  0.68622786    -0.18300
F3131       F  0.66786302  0.34149580  0.76706083    -0.20700
F3132       F  0.69826212  0.32883176  0.76777878    -0.21900
F3133       F  0.67408827  0.31288153  0.75248846    -0.19100
F3134       F  0.71895550  0.36803302  0.67767198    -0.19200
F3135       F  0.70796987  0.39475626  0.69308752    -0.23000
F3136       F  0.68774232  0.37791669  0.67389720    -0.24600
C3137       C  0.53988345  0.48107571  0.61762455    -0.11400
C3138       C  0.55508589  0.46697140  0.61757348     0.11200
C3139       C  0.55962558  0.45686913  0.60035727    -0.03200
C3140       C  0.54961422  0.46225566  0.58340789    -0.06000
C3141       C  0.53551719  0.47759002  0.58291647    -0.16700
C3142       C  0.53006097  0.48682034  0.60053342     0.02200
C3143       C  0.56696240  0.46404492  0.63538068     0.12100
C3144       C  0.57540560  0.44087171  0.59969814     0.62800
H3145       H  0.55323567  0.45480121  0.57010738     0.12200
C3146       C  0.51454477  0.50303378  0.60144565     0.54900
H3147       H  0.53631392  0.48809912  0.63116618     0.08000
C3148       C  0.58146559  0.47762852  0.64075500    -0.05800
C3149       C  0.59306393  0.47342328  0.65707168    -0.06600
C3150       C  0.59074038  0.45612882  0.66796532    -0.16200
C3151       C  0.57599896  0.44272436  0.66281156    -0.01800
C3152       C  0.56416294  0.44707106  0.64663832    -0.09300
C3153       C  0.58462659  0.49653680  0.62937730     0.65000
H3154       H  0.60415563  0.48366041  0.66148865     0.10400
C3155       C  0.57253168  0.42415881  0.67452439     0.63400
H3156       H  0.55273173  0.43711580  0.64246554     0.07800
F3157       F  0.51250415  0.51051830  0.61986585    -0.19700
F3158       F  0.49663256  0.49566084  0.59606498    -0.15900
F3159       F  0.51954308  0.51839172  0.58927363    -0.19400
F3160       F  0.57009172  0.42524936  0.61135992    -0.22800
F3161       F  0.59302241  0.44818616  0.60603050    -0.24300
F3162       F  0.57822537  0.43379071  0.58121442    -0.18300
F3163       F  0.55644372  0.41404637  0.66796439    -0.20700
F3164       F  0.56925233  0.42889635  0.69363514    -0.21900
F3165       F  0.58873343  0.41180612  0.67325188    -0.19100
F3166       F  0.60081402  0.50654455  0.63583940    -0.19200
F3167       F  0.56842173  0.50880458  0.63129165    -0.23000
F3168       F  0.58751775  0.49242707  0.61006716    -0.24600
C3169       C  0.69104409  0.61617293  0.81506793    -0.11400
C3170       C  0.68624189  0.63486656  0.82210129     0.11200
C3171       C  0.67016762  0.63711528  0.83491028    -0.03200
C3172       C  0.65909115  0.62046770  0.83986109    -0.06000
C3173       C  0.66336094  0.60184978  0.83216277    -0.16700
C3174       C  0.68010194  0.59950249  0.82003300     0.02200
C3175       C  0.69671774  0.65197048  0.81362268     0.12100
C3176       C  0.66450635  0.65707422  0.84300923     0.62800
H3177       H  0.64642339  0.62206419  0.84916619     0.12200
C3178       C  0.68663307  0.57964579  0.81217775     0.54900
H3179       H  0.70312378  0.61486287  0.80497157     0.08000
C3180       C  0.71580253  0.65733843  0.81926946    -0.05800
C3181       C  0.72504812  0.67289670  0.80937857    -0.06600
C3182       C  0.71620559  0.68261618  0.79352960    -0.16200
C3183       C  0.69694722  0.67704667  0.78792924    -0.01800
C3184       C  0.68768032  0.66184274  0.79817228    -0.09300
C3185       C  0.72661065  0.64622608  0.83518734     0.65000
H3186       H  0.73972197  0.67698878  0.81345056     0.10400
C3187       C  0.68587292  0.68687519  0.77131965     0.63400
H3188       H  0.67329902  0.65704167  0.79384474     0.07800
F3189       F  0.70564180  0.58013119  0.80517311    -0.19700
F3190       F  0.67454694  0.57430566  0.79719050    -0.15900
F3191       F  0.68610312  0.56548928  0.82662293    -0.19400
F3192       F  0.65896500  0.66974386  0.82823732    -0.22800
F3193       F  0.68024864  0.66486517  0.85263511    -0.24300
F3194       F  0.64902161  0.65583343  0.85587746    -0.18300
F3195       F  0.69450937  0.68188347  0.75393240    -0.20700
F3196       F  0.68582563  0.70705297  0.77352426    -0.21900
F3197       F  0.66653564  0.68107548  0.77056250    -0.19100
F3198       F  0.74448547  0.65456935  0.83926154    -0.19200
F3199       F  0.73006768  0.62702889  0.82961454    -0.23000
F3200       F  0.71554289  0.64623066  0.85189876    -0.24600
C3201       C  0.59300488  0.57370207  0.89969194    -0.11400
C3202       C  0.59610677  0.55566011  0.90926518     0.11200
C3203       C  0.61090890  0.54256027  0.90252372    -0.03200
C3204       C  0.62195544  0.54793696  0.88613971    -0.06000
C3205       C  0.61840403  0.56569496  0.87617211    -0.16700
C3206       C  0.60380201  0.57889546  0.88308172     0.02200
C3207       C  0.58171924  0.54965002  0.92433656     0.12100
C3208       C  0.61433791  0.52256670  0.91199614     0.62800
H3209       H  0.63290183  0.53786742  0.88040400     0.12200
C3210       C  0.59877849  0.59774646  0.87220666     0.54900
H3211       H  0.58131156  0.58326268  0.90480715     0.08000
C3212       C  0.58328720  0.55500455  0.94400502    -0.05800
C3213       C  0.56951601  0.54758716  0.95733240    -0.06600
C3214       C  0.55390586  0.53599206  0.95131003    -0.16200
C3215       C  0.55147858  0.53198792  0.93151256    -0.01800
C3216       C  0.56561224  0.53870232  0.91832755    -0.09300
C3217       C  0.59906357  0.56880074  0.95076961     0.65000
H3218       H  0.57075586  0.55082865  0.97254692     0.10400
C3219       C  0.53386544  0.52076397  0.92449354     0.63400
H3220       H  0.56426318  0.53539756  0.90313471     0.07800
F3221       F  0.58344128  0.60798925  0.88077740    -0.19700
F3222       F  0.59334535  0.59339661  0.85352876    -0.15900
F3223       F  0.61487916  0.60980518  0.87175646    -0.19400
F3224       F  0.59807356  0.51102205  0.90948605    -0.22800
F3225       F  0.61768544  0.52470529  0.93151157    -0.24300
F3226       F  0.63036954  0.51278551  0.90415357    -0.18300
F3227       F  0.51684454  0.53063714  0.92979093    -0.20700
F3228       F  0.53390691  0.50212998  0.93264472    -0.21900
F3229       F  0.53386312  0.51888532  0.90462971    -0.19100
F3230       F  0.59774769  0.57225630  0.97039678    -0.19200
F3231       F  0.59708640  0.58665711  0.94123691    -0.23000
F3232       F  0.61741252  0.56089980  0.94695958    -0.24600
C3233       C  0.63032210  0.51282276  0.79364305    -0.11400
C3234       C  0.62257159  0.52089248  0.77655616     0.11200
C3235       C  0.61693725  0.54097470  0.77574550    -0.03200
C3236       C  0.61995208  0.55261061  0.79212022    -0.06000
C3237       C  0.62801870  0.54461620  0.80913874    -0.16700
C3238       C  0.63336312  0.52443935  0.81000234     0.02200
C3239       C  0.62053845  0.50780710  0.75974676     0.12100
C3240       C  0.60777034  0.54995363  0.75768282     0.62800
H3241       H  0.61608789  0.56811434  0.79177205     0.12200
C3242       C  0.64291083  0.51542375  0.82782921     0.54900
H3243       H  0.63424659  0.49733240  0.79391729     0.08000
C3244       C  0.63654326  0.50346557  0.74739410    -0.05800
C3245       C  0.63369220  0.49039886  0.73212903    -0.06600
C3246       C  0.61571751  0.48112952  0.72937670    -0.16200
C3247       C  0.59986250  0.48508752  0.74201141    -0.01800
C3248       C  0.60248812  0.49871161  0.75689907    -0.09300
C3249       C  0.65669364  0.51200889  0.75072697     0.65000
H3250       H  0.64572638  0.48676583  0.72252325     0.10400
C3251       C  0.58082118  0.47398015  0.74061036     0.63400
H3252       H  0.59066648  0.50192025  0.76688900     0.07800
F3253       F  0.64891810  0.49616063  0.82482246    -0.19700
F3254       F  0.62972827  0.51556551  0.84299502    -0.15900
F3255       F  0.65921645  0.52607693  0.83279970    -0.19400
F3256       F  0.59010939  0.54106193  0.75401675    -0.22800
F3257       F  0.62006084  0.54725183  0.74202601    -0.24300
F3258       F  0.60426871  0.56993602  0.75960357    -0.18300
F3259       F  0.56751199  0.47974825  0.75464011    -0.20700
F3260       F  0.58458442  0.45406330  0.74298581    -0.21900
F3261       F  0.57227123  0.47730907  0.72280209    -0.19100
F3262       F  0.66991400  0.50641875  0.73654513    -0.19200
F3263       F  0.66394947  0.50547374  0.76828665    -0.23000
F3264       F  0.65556152  0.53230346  0.75075878    -0.24600
C3265       C  0.53949051  0.40580892  0.37466642    -0.11400
C3266       C  0.53418478  0.40472838  0.39420127     0.11200
C3267       C  0.53323841  0.38617197  0.40354224    -0.03200
C3268       C  0.53790213  0.36920876  0.39294258    -0.06000
C3269       C  0.54328641  0.37014087  0.37336962    -0.16700
C3270       C  0.54405334  0.38877429  0.36396828     0.02200
C3271       C  0.52958697  0.42320697  0.40469805     0.12100
C3272       C  0.52713921  0.38429351  0.42459642     0.62800
H3273       H  0.53724673  0.35491485  0.39990483     0.12200
C3274       C  0.54876073  0.39071098  0.34261939     0.54900
H3275       H  0.53991514  0.42018803  0.36785538     0.08000
C3276       C  0.54435459  0.43396267  0.41398499    -0.05800
C3277       C  0.53872268  0.44944029  0.42622737    -0.06600
C3278       C  0.51893294  0.45459509  0.42910766    -0.16200
C3279       C  0.50430926  0.44504743  0.41837433    -0.01800
C3280       C  0.50992371  0.42936200  0.40631086    -0.09300
C3281       C  0.56592369  0.42912621  0.41086809     0.65000
H3282       H  0.54975379  0.45727607  0.43415452     0.10400
C3283       C  0.48297265  0.45148728  0.41957026     0.63400
H3284       H  0.49891353  0.42124783  0.39862870     0.07800
F3285       F  0.56784012  0.38459648  0.33916911    -0.19700
F3286       F  0.54687004  0.40995554  0.33613041    -0.15900
F3287       F  0.53606776  0.37936903  0.33207895    -0.19400
F3288       F  0.50831775  0.39166699  0.42697548    -0.22800
F3289       F  0.53972981  0.39466795  0.43614282    -0.24300
F3290       F  0.52742098  0.36491739  0.43089660    -0.18300
F3291       F  0.47182062  0.44280855  0.40543509    -0.20700
F3292       F  0.48140843  0.47166706  0.41713016    -0.21900
F3293       F  0.47533556  0.44628314  0.43733654    -0.19100
F3294       F  0.57784445  0.44082757  0.42191387    -0.19200
F3295       F  0.57062764  0.43218289  0.39167571    -0.23000
F3296       F  0.56994191  0.40972657  0.41570921    -0.24600
C3297       C  0.49243098  0.28525315  0.35923415    -0.11400
C3298       C  0.50140418  0.26709712  0.36377537     0.11200
C3299       C  0.52165804  0.26621126  0.36808973    -0.03200
C3300       C  0.53238967  0.28364228  0.36727651    -0.06000
C3301       C  0.52357489  0.30173894  0.36226047    -0.16700
C3302       C  0.50318007  0.30275553  0.35851620     0.02200
C3303       C  0.48943707  0.24909707  0.36282774     0.12100
C3304       C  0.53205428  0.24688335  0.37293143     0.62800
H3305       H  0.54802950  0.28318149  0.36990465     0.12200
C3306       C  0.49299312  0.32198472  0.35297320     0.54900
H3307       H  0.47696179  0.28548420  0.35579411     0.08000
C3308       C  0.47626201  0.24374683  0.37772415    -0.05800
C3309       C  0.46529852  0.22654823  0.37561510    -0.06600
C3310       C  0.46726027  0.21475284  0.35922843    -0.16200
C3311       C  0.48085581  0.21974895  0.34465310    -0.01800
C3312       C  0.49145644  0.23717506  0.34651094    -0.09300
C3313       C  0.47378670  0.25615855  0.39568535     0.65000
H3314       H  0.45487589  0.22228575  0.38663525     0.10400
C3315       C  0.48456568  0.20634273  0.32761637     0.63400
H3316       H  0.50156994  0.24160104  0.33527675     0.07800
F3317       F  0.49412970  0.33506998  0.36805604    -0.19700
F3318       F  0.47337056  0.31940045  0.34884020    -0.15900
F3319       F  0.50183839  0.32998062  0.33679295    -0.19400
F3320       F  0.53253370  0.23501450  0.35686499    -0.22800
F3321       F  0.52235213  0.23730125  0.38771015    -0.24300
F3322       F  0.55117271  0.24972245  0.37878980    -0.18300
F3323       F  0.46780312  0.20511739  0.31657696    -0.20700
F3324       F  0.48983923  0.18776127  0.33424102    -0.21900
F3325       F  0.49953158  0.21310701  0.31591517    -0.19100
F3326       F  0.46157681  0.24736865  0.40908806    -0.19200
F3327       F  0.46573829  0.27428456  0.39078618    -0.23000
F3328       F  0.49176589  0.25884672  0.40433060    -0.24600
C3329       C  0.30555928  0.33879942  0.62647868    -0.11400
C3330       C  0.31028216  0.35108223  0.64184145     0.11200
C3331       C  0.32059627  0.36860253  0.63813714    -0.03200
C3332       C  0.32455683  0.37397802  0.61882271    -0.06000
C3333       C  0.31898902  0.36212904  0.60329092    -0.16700
C3334       C  0.30988098  0.34385636  0.60721504     0.02200
C3335       C  0.30447418  0.34467196  0.66161576     0.12100
C3336       C  0.32775715  0.38125876  0.65451817     0.62800
H3337       H  0.33199416  0.38759094  0.61569382     0.12200
C3338       C  0.30542082  0.32928140  0.59137584     0.54900
H3339       H  0.29827045  0.32513641  0.62977804     0.08000
C3340       C  0.28492243  0.34666559  0.66836834    -0.05800
C3341       C  0.27973122  0.33746597  0.68590210    -0.06600
C3342       C  0.29335888  0.32627467  0.69661360    -0.16200
C3343       C  0.31319926  0.32548809  0.69054008    -0.01800
C3344       C  0.31836567  0.33458882  0.67299454    -0.09300
C3345       C  0.26937127  0.35755617  0.65662364     0.65000
H3346       H  0.26458745  0.33765553  0.69062748     0.10400
C3347       C  0.32935206  0.31481375  0.70161369     0.63400
H3348       H  0.33328629  0.33312985  0.66773886     0.07800
F3349       F  0.29024620  0.33633152  0.57997024    -0.19700
F3350       F  0.29989048  0.31124639  0.59885260    -0.15900
F3351       F  0.32192934  0.32620843  0.58011747    -0.19400
F3352       F  0.34205989  0.37106619  0.66476432    -0.22800
F3353       F  0.31245179  0.38597342  0.66681006    -0.24300
F3354       F  0.33572782  0.39862407  0.64780643    -0.18300
F3355       F  0.33651815  0.29937669  0.69069163    -0.20700
F3356       F  0.32320160  0.30749224  0.71924658    -0.21900
F3357       F  0.34440888  0.32771804  0.70499010    -0.19100
F3358       F  0.25185816  0.35929502  0.66663255    -0.19200
F3359       F  0.26582734  0.34754815  0.63975817    -0.23000
F3360       F  0.27561872  0.37627627  0.65210649    -0.24600
C3361       C  0.38686391  0.41006010  0.53476922    -0.11400
C3362       C  0.39667203  0.41848569  0.55029976     0.11200
C3363       C  0.38953637  0.41536832  0.56925630    -0.03200
C3364       C  0.37244907  0.40422993  0.57191306    -0.06000
C3365       C  0.36231027  0.39591069  0.55633524    -0.16700
C3366       C  0.37021273  0.39828977  0.53738465     0.02200
C3367       C  0.41411444  0.43086014  0.54601277     0.12100
C3368       C  0.39979074  0.42396491  0.58660727     0.62800
H3369       H  0.36662627  0.40236609  0.58633634     0.12200
C3370       C  0.36184119  0.38808216  0.51988898     0.54900
H3371       H  0.39248891  0.41280758  0.52038626     0.08000
C3372       C  0.43257813  0.42258662  0.54094524    -0.05800
C3373       C  0.44799292  0.43526321  0.53580389    -0.06600
C3374       C  0.44562019  0.45586686  0.53578690    -0.16200
C3375       C  0.42711737  0.46406217  0.54110677    -0.01800
C3376       C  0.41166933  0.45135891  0.54593592    -0.09300
C3377       C  0.43587846  0.40044093  0.54083347     0.65000
H3378       H  0.46205524  0.42913730  0.53149503     0.10400
C3379       C  0.42345692  0.48609550  0.54145818     0.63400
H3380       H  0.39736596  0.45734684  0.54961292     0.07800
F3381       F  0.37432365  0.38913252  0.50414446    -0.19700
F3382       F  0.34421696  0.39684855  0.51463853    -0.15900
F3383       F  0.35913722  0.36838625  0.52403785    -0.19400
F3384       F  0.39852262  0.44424589  0.58583617    -0.22800
F3385       F  0.41930510  0.41823149  0.58671027    -0.24300
F3386       F  0.39149588  0.41776414  0.60382465    -0.18300
F3387       F  0.40386364  0.49079008  0.54428898    -0.20700
F3388       F  0.42921268  0.49458676  0.52419088    -0.21900
F3389       F  0.43388557  0.49401128  0.55644441    -0.19100
F3390       F  0.45519755  0.39544116  0.53691294    -0.19200
F3391       F  0.42432587  0.39205528  0.52688914    -0.23000
F3392       F  0.43109378  0.39252265  0.55864145    -0.24600
C3393       C  0.28271309  0.36116359  0.50691281    -0.11400
C3394       C  0.26626784  0.37363493  0.50874160     0.11200
C3395       C  0.26443047  0.38570057  0.52522584    -0.03200
C3396       C  0.27975682  0.38559943  0.53884467    -0.06000
C3397       C  0.29648143  0.37353324  0.53670705    -0.16700
C3398       C  0.29773778  0.36058668  0.52079791     0.02200
C3399       C  0.25086256  0.37308927  0.49352007     0.12100
C3400       C  0.24631821  0.39851091  0.52844917     0.62800
H3401       H  0.27884212  0.39503941  0.55132394     0.12200
C3402       C  0.31409807  0.34551659  0.51789976     0.54900
H3403       H  0.28366931  0.35150163  0.49457722     0.08000
C3404       C  0.25246937  0.38377121  0.47594404    -0.05800
C3405       C  0.23723754  0.38260659  0.46228521    -0.06600
C3406       C  0.22067041  0.37106838  0.46564368    -0.16200
C3407       C  0.21945975  0.35978993  0.48290494    -0.01800
C3408       C  0.23464940  0.36101521  0.49657379    -0.09300
C3409       C  0.27024636  0.39624918  0.47164466     0.65000
H3410       H  0.23806089  0.39084716  0.44886912     0.10400
C3411       C  0.20255891  0.34598989  0.48655833     0.63400
H3412       H  0.23400071  0.35255309  0.50986817     0.07800
F3413       F  0.32459600  0.35040806  0.50150752    -0.19700
F3414       F  0.30604928  0.32717084  0.51539457    -0.15900
F3415       F  0.32688280  0.34410207  0.53328496    -0.19400
F3416       F  0.23000424  0.38683423  0.53015385    -0.22800
F3417       F  0.24371313  0.41136118  0.51307839    -0.24300
F3418       F  0.24773631  0.40948852  0.54509339    -0.18300
F3419       F  0.20532945  0.33481076  0.50315230    -0.20700
F3420       F  0.20082053  0.33327248  0.47121779    -0.21900
F3421       F  0.18531190  0.35667150  0.48863799    -0.19100
F3422       F  0.26881048  0.40558728  0.45386065    -0.19200
F3423       F  0.28696535  0.38452777  0.47151882    -0.23000
F3424       F  0.27214005  0.41049339  0.48557436    -0.24600
C3425       C  0.38606829  0.92315887  0.41488655    -0.11400
C3426       C  0.38411688  0.93972954  0.42665266     0.11200
C3427       C  0.36521003  0.94677028  0.43157642    -0.03200
C3428       C  0.34898188  0.93515559  0.42725534    -0.06000
C3429       C  0.35094077  0.91738546  0.41713867    -0.16700
C3430       C  0.36967312  0.91203713  0.40952570     0.02200
C3431       C  0.40192793  0.94813511  0.43555861     0.12100
C3432       C  0.36228743  0.96650829  0.44129604     0.62800
H3433       H  0.33453303  0.93983455  0.43198970     0.12200
C3434       C  0.37265934  0.89455732  0.39630977     0.54900
H3435       H  0.40069613  0.91855971  0.41063110     0.08000
C3436       C  0.40950329  0.94033083  0.45304537    -0.05800
C3437       C  0.42499669  0.94997949  0.46204903    -0.06600
C3438       C  0.43306175  0.96733331  0.45442293    -0.16200
C3439       C  0.42600289  0.97463818  0.43633622    -0.01800
C3440       C  0.41053918  0.96475300  0.42720199    -0.09300
C3441       C  0.40078468  0.92219684  0.46252531     0.65000
H3442       H  0.43069032  0.94414311  0.47553016     0.10400
C3443       C  0.43427509  0.99290229  0.42678806     0.63400
H3444       H  0.40464689  0.97019296  0.41364469     0.07800
F3445       F  0.36709150  0.87748171  0.40563466    -0.19700
F3446       F  0.39204114  0.89225830  0.39073424    -0.15900
F3447       F  0.36167751  0.89728139  0.37972085    -0.19400
F3448       F  0.36931943  0.98118226  0.42932697    -0.22800
F3449       F  0.37224163  0.96683057  0.45863180    -0.24300
F3450       F  0.34270633  0.97059075  0.44494722    -0.18300
F3451       F  0.42406208  0.99824246  0.41027023    -0.20700
F3452       F  0.45353727  0.98931551  0.42155293    -0.21900
F3453       F  0.43325927  0.00857660  0.43934803    -0.19100
F3454       F  0.41044846  0.91694560  0.47938616    -0.19200
F3455       F  0.40208155  0.90644283  0.45011750    -0.23000
F3456       F  0.38132708  0.92578749  0.46703932    -0.24600
C3457       C  0.44802003  0.07579168  0.59937848    -0.11400
C3458       C  0.44584622  0.06239489  0.61469287     0.11200
C3459       C  0.45456921  0.04343322  0.61355154    -0.03200
C3460       C  0.46442795  0.03818173  0.59654470    -0.06000
C3461       C  0.46589119  0.05119162  0.58074886    -0.16700
C3462       C  0.45826488  0.07064647  0.58244850     0.02200
C3463       C  0.43300514  0.06782986  0.63112543     0.12100
C3464       C  0.45313428  0.02861647  0.63006438     0.62800
H3465       H  0.47040802  0.02343172  0.59519157     0.12200
C3466       C  0.46108930  0.08603149  0.56674758     0.54900
H3467       H  0.44115215  0.09018870  0.60059091     0.08000
C3468       C  0.43959289  0.07915070  0.64679565    -0.05800
C3469       C  0.42722826  0.08136250  0.66295910    -0.06600
C3470       C  0.40888054  0.07239202  0.66377419    -0.16200
C3471       C  0.40206654  0.06170135  0.64779434    -0.01800
C3472       C  0.41410081  0.06010668  0.63143319    -0.09300
C3473       C  0.45967818  0.08842309  0.64655280     0.65000
H3474       H  0.43210170  0.08942437  0.67541944     0.10400
C3475       C  0.38247263  0.05146598  0.64831103     0.63400
H3476       H  0.40933425  0.05177000  0.61910497     0.07800
F3477       F  0.48044608  0.08595589  0.56077612    -0.19700
F3478       F  0.45651589  0.10474529  0.57322221    -0.15900
F3479       F  0.44907815  0.08212807  0.55127189    -0.19400
F3480       F  0.43390560  0.02309532  0.63263091    -0.22800
F3481       F  0.45986611  0.03679738  0.64692976    -0.24300
F3482       F  0.46420911  0.01179247  0.62658519    -0.18300
F3483       F  0.36772850  0.06496708  0.65230283    -0.20700
F3484       F  0.38269441  0.03698112  0.66244183    -0.21900
F3485       F  0.37823192  0.04271407  0.63088590    -0.19100
F3486       F  0.46343131  0.09826231  0.66350930    -0.19200
F3487       F  0.46079098  0.10179171  0.63146832    -0.23000
F3488       F  0.47406453  0.07411126  0.64421926    -0.24600
C3489       C  0.53907871  0.95926957  0.40137514    -0.11400
C3490       C  0.55948515  0.95825891  0.40377850     0.11200
C3491       C  0.56761814  0.96123199  0.42226661    -0.03200
C3492       C  0.55493828  0.96571377  0.43767207    -0.06000
C3493       C  0.53452244  0.96742044  0.43519944    -0.16700
C3494       C  0.52634982  0.96343059  0.41689414     0.02200
C3495       C  0.57197932  0.95533186  0.38639285     0.12100
C3496       C  0.58960170  0.96003266  0.42567458     0.62800
H3497       H  0.56102977  0.96871775  0.45173458     0.12200
C3498       C  0.50439167  0.96320095  0.41370907     0.54900
H3499       H  0.53318556  0.95712656  0.38706443     0.08000
C3500       C  0.57473976  0.93673278  0.37773587    -0.05800
C3501       C  0.58612036  0.93542363  0.36077825    -0.06600
C3502       C  0.59449720  0.95211139  0.35216454    -0.16200
C3503       C  0.59229116  0.97063495  0.36135484    -0.01800
C3504       C  0.58074272  0.97189372  0.37814400    -0.09300
C3505       C  0.56533189  0.91846785  0.38614820     0.65000
H3506       H  0.58792443  0.92139915  0.35367861     0.10400
C3507       C  0.60232313  0.98902925  0.35392584     0.63400
H3508       H  0.57824057  0.98599504  0.38493280     0.07800
F3509       F  0.49971194  0.95449882  0.39637677    -0.19700
F3510       F  0.49704233  0.98219744  0.41336998    -0.15900
F3511       F  0.49541754  0.95267242  0.42834788    -0.19400
F3512       F  0.59881050  0.97484831  0.41554226    -0.22800
F3513       F  0.59692138  0.94206215  0.41962468    -0.24300
F3514       F  0.59422205  0.96200939  0.44499688    -0.18300
F3515       F  0.59286892  0.99613134  0.33761977    -0.20700
F3516       F  0.62172467  0.98481842  0.34959062    -0.21900
F3517       F  0.60204053  0.00380975  0.36753702    -0.19100
F3518       F  0.57104728  0.90167223  0.37637835    -0.19200
F3519       F  0.54517802  0.92025125  0.38495641    -0.23000
F3520       F  0.57061201  0.91607363  0.40527733    -0.24600
C3521       C  0.45507723  0.10564233  0.44172863    -0.11400
C3522       C  0.45497091  0.10064960  0.42222941     0.11200
C3523       C  0.45811925  0.08094135  0.41675530    -0.03200
C3524       C  0.46084340  0.06660213  0.43128462    -0.06000
C3525       C  0.46162907  0.07143961  0.45105898    -0.16700
C3526       C  0.45856677  0.09153574  0.45636094     0.02200
C3527       C  0.45234187  0.11670359  0.40784258     0.12100
C3528       C  0.45941185  0.07527361  0.39561269     0.62800
H3529       H  0.46306459  0.05146417  0.42707479     0.12200
C3530       C  0.45969732  0.09861443  0.47706090     0.54900
H3531       H  0.45284056  0.12098009  0.44530134     0.08000
C3532       C  0.43357750  0.12372833  0.40232445    -0.05800
C3533       C  0.43226146  0.13946494  0.38908084    -0.06600
C3534       C  0.44904870  0.14863175  0.38165811    -0.16200
C3535       C  0.46789944  0.14126430  0.38701204    -0.01800
C3536       C  0.46913349  0.12544199  0.40018890    -0.09300
C3537       C  0.41507126  0.11517852  0.41101731     0.65000
H3538       H  0.41798135  0.14523688  0.38498279     0.10400
C3539       C  0.48669468  0.14964039  0.37876200     0.63400
H3540       H  0.48330542  0.11983799  0.40486072     0.07800
F3541       F  0.44552695  0.08958801  0.48819351    -0.19700
F3542       F  0.45658798  0.11871073  0.47847240    -0.15900
F3543       F  0.47815545  0.09445903  0.48434291    -0.19400
F3544       F  0.47539059  0.08420738  0.38719126    -0.22800
F3545       F  0.44265930  0.08126500  0.38592106    -0.24300
F3546       F  0.46158753  0.05516474  0.39334550    -0.18300
F3547       F  0.49008770  0.16785092  0.38668096    -0.20700
F3548       F  0.48528777  0.15143475  0.35891251    -0.21900
F3549       F  0.50275989  0.13762788  0.38278638    -0.19100
F3550       F  0.39835601  0.12282106  0.40229956    -0.19200
F3551       F  0.41422508  0.11948553  0.43045127    -0.23000
F3552       F  0.41497207  0.09500747  0.40887211    -0.24600
C3553       C  0.38601897  0.70683320  0.64801320    -0.11400
C3554       C  0.38542435  0.71617067  0.66595151     0.11200
C3555       C  0.40267460  0.71736629  0.67712342    -0.03200
C3556       C  0.42028657  0.70995450  0.66937563    -0.06000
C3557       C  0.42115965  0.70116299  0.65111264    -0.16700
C3558       C  0.40364082  0.69913437  0.64034687     0.02200
C3559       C  0.36622091  0.72329428  0.67332593     0.12100
C3560       C  0.40244228  0.72605249  0.69728569     0.62800
H3561       H  0.43362996  0.71080314  0.67769012     0.12200
C3562       C  0.40342488  0.68917469  0.62084444     0.54900
H3563       H  0.37243828  0.70558345  0.64010277     0.08000
C3564       C  0.35922178  0.74271054  0.66996519    -0.05800
C3565       C  0.34180132  0.74888291  0.67918858    -0.06600
C3566       C  0.33090455  0.73594923  0.69072315    -0.16200
C3567       C  0.33724678  0.71610325  0.69285793    -0.01800
C3568       C  0.35492003  0.71013013  0.68408804    -0.09300
C3569       C  0.36986543  0.75659257  0.65637220     0.65000
H3570       H  0.33657562  0.76392255  0.67756961     0.10400
C3571       C  0.32596878  0.70155067  0.70510531     0.63400
H3572       H  0.36043750  0.69522707  0.68602898     0.07800
F3573       F  0.41665584  0.69803265  0.60851681    -0.19700
F3574       F  0.38512347  0.69034612  0.61230408    -0.15900
F3575       F  0.40832359  0.66948724  0.62308739    -0.19400
F3576       F  0.39022440  0.71527241  0.70910680    -0.22800
F3577       F  0.39577874  0.74531776  0.69669814    -0.24300
F3578       F  0.42091571  0.72584849  0.70550974    -0.18300
F3579       F  0.30704726  0.70010817  0.69827675    -0.20700
F3580       F  0.32550063  0.70784428  0.72398618    -0.21900
F3581       F  0.33448928  0.68293729  0.70481830    -0.19100
F3582       F  0.36033629  0.77465102  0.65486129    -0.19200
F3583       F  0.37080285  0.74846431  0.63818382    -0.23000
F3584       F  0.38869003  0.75975758  0.66276905    -0.24600
C3585       C  0.47614895  0.63868358  0.58760960    -0.11400
C3586       C  0.47698840  0.62103407  0.59819103     0.11200
C3587       C  0.47320496  0.62114858  0.61828597    -0.03200
C3588       C  0.46785112  0.63906428  0.62702410    -0.06000
C3589       C  0.46711815  0.65672935  0.61643297    -0.16700
C3590       C  0.47141301  0.65666687  0.59643124     0.02200
C3591       C  0.48294825  0.60292742  0.58778144     0.12100
C3592       C  0.47544103  0.60258856  0.63047622     0.62800
H3593       H  0.46484202  0.63956202  0.64236445     0.12200
C3594       C  0.47082130  0.67545073  0.58443281     0.54900
H3595       H  0.47950835  0.63823147  0.57233652     0.08000
C3596       C  0.46946365  0.59198461  0.57693794    -0.05800
C3597       C  0.47650497  0.57592552  0.56616542    -0.06600
C3598       C  0.49658301  0.57112027  0.56522102    -0.16200
C3599       C  0.51005014  0.58199333  0.57630213    -0.01800
C3600       C  0.50289158  0.59772077  0.58748187    -0.09300
C3601       C  0.44791642  0.59784911  0.57598072     0.65000
H3602       H  0.46644370  0.56762421  0.55748036     0.10400
C3603       C  0.53184758  0.57718715  0.57640796     0.63400
H3604       H  0.51293579  0.60658270  0.59563016     0.07800
F3605       F  0.45242195  0.68413364  0.58569005    -0.19700
F3606       F  0.47482573  0.67194363  0.56516421    -0.15900
F3607       F  0.48462263  0.68835596  0.59108762    -0.19400
F3608       F  0.49459401  0.59575685  0.62957291    -0.22800
F3609       F  0.46319367  0.58820874  0.62376145    -0.24300
F3610       F  0.47087909  0.60592039  0.64965376    -0.18300
F3611       F  0.54009715  0.58269558  0.55898826    -0.20700
F3612       F  0.53486898  0.55724521  0.57940039    -0.21900
F3613       F  0.54145886  0.58701131  0.59092152    -0.19100
F3614       F  0.43713233  0.58444876  0.56569275    -0.19200
F3615       F  0.44591349  0.61599039  0.56699076    -0.23000
F3616       F  0.44007875  0.59896499  0.59433833    -0.24600
C3617       C  0.65786270  0.83129791  0.65125034    -0.11400
C3618       C  0.65935536  0.82102115  0.66883026     0.11200
C3619       C  0.64222103  0.81460990  0.67834662    -0.03200
C3620       C  0.62403225  0.81826641  0.66957000    -0.06000
C3621       C  0.62241573  0.82782911  0.65157933    -0.16700
C3622       C  0.63960354  0.83463469  0.64221114     0.02200
C3623       C  0.67902317  0.81575868  0.67648697     0.12100
C3624       C  0.64318356  0.80353841  0.69750855     0.62800
H3625       H  0.61079922  0.81334480  0.67664162     0.12200
C3626       C  0.63891600  0.84447590  0.62245145     0.54900
H3627       H  0.67124466  0.83612093  0.64438866     0.08000
C3628       C  0.68898427  0.79846370  0.67053446    -0.05800
C3629       C  0.70552943  0.79203259  0.68099321    -0.06600
C3630       C  0.71216067  0.80226608  0.69717892    -0.16200
C3631       C  0.70313262  0.82050178  0.70206133    -0.01800
C3632       C  0.68669946  0.82702659  0.69142161    -0.09300
C3633       C  0.68171496  0.78657249  0.65360055     0.65000
H3634       H  0.71273588  0.77828814  0.67725970     0.10400
C3635       C  0.71062310  0.83297599  0.71845154     0.63400
H3636       H  0.67896595  0.84040414  0.69543737     0.07800
F3637       F  0.65749465  0.84749180  0.61504653    -0.19700
F3638       F  0.62955125  0.86258273  0.62373148    -0.15900
F3639       F  0.62898419  0.83278599  0.60962982    -0.19400
F3640       F  0.65122392  0.81535272  0.71143370    -0.22800
F3641       F  0.65459609  0.78668989  0.69568274    -0.24300
F3642       F  0.62481748  0.79798352  0.70384333    -0.18300
F3643       F  0.70224548  0.85163592  0.71816837    -0.20700
F3644       F  0.73069425  0.83493435  0.71684669    -0.21900
F3645       F  0.70616208  0.82433873  0.73601019    -0.19100
F3646       F  0.69327283  0.77000718  0.65047386    -0.19200
F3647       F  0.68206049  0.79801282  0.63702049    -0.23000
F3648       F  0.66275288  0.78051411  0.65693807    -0.24600
C3649       C  0.54771122  0.89108005  0.61101815    -0.11400
C3650       C  0.55842320  0.89745016  0.59494406     0.11200
C3651       C  0.57578970  0.88728335  0.58951283    -0.03200
C3652       C  0.58148172  0.87039164  0.60007079    -0.06000
C3653       C  0.57033488  0.86351290  0.61569933    -0.16700
C3654       C  0.55333832  0.87415275  0.62154411     0.02200
C3655       C  0.55092414  0.91467068  0.58381510     0.12100
C3656       C  0.58822173  0.89434820  0.57269130     0.62800
H3657       H  0.59464221  0.86228034  0.59610333     0.12200
C3658       C  0.54130063  0.86786588  0.63890022     0.54900
H3659       H  0.53464726  0.89933121  0.61501638     0.08000
C3660       C  0.53655284  0.91265193  0.56933611    -0.05800
C3661       C  0.53119465  0.92926450  0.55831399    -0.06600
C3662       C  0.53920525  0.94778514  0.56174712    -0.16200
C3663       C  0.55287049  0.95002047  0.57688414    -0.01800
C3664       C  0.55857738  0.93324998  0.58768810    -0.09300
C3665       C  0.52679078  0.89310561  0.56566891     0.65000
H3666       H  0.52041688  0.92798617  0.54695976     0.10400
C3667       C  0.56179082  0.96976815  0.58121714     0.63400
H3668       H  0.56923645  0.93441849  0.59915489     0.07800
F3669       F  0.53156905  0.85080526  0.63470701    -0.19700
F3670       F  0.52743590  0.88200272  0.64388606    -0.15900
F3671       F  0.55336489  0.86466251  0.65466925    -0.19400
F3672       F  0.59504572  0.91294678  0.57644148    -0.22800
F3673       F  0.57719950  0.89501914  0.55598313    -0.24300
F3674       F  0.60425635  0.88208088  0.56954823    -0.18300
F3675       F  0.54747192  0.98254891  0.58796788    -0.20700
F3676       F  0.57002897  0.97752436  0.56463738    -0.21900
F3677       F  0.57631089  0.96818598  0.59508817    -0.19100
F3678       F  0.51362363  0.89435108  0.55051995    -0.19200
F3679       F  0.51663684  0.88726507  0.58196486    -0.23000
F3680       F  0.54072526  0.87889964  0.56121948    -0.24600
C3681       C  0.55248963  0.76132451  0.64430176    -0.11400
C3682       C  0.53232031  0.76517376  0.64382483     0.11200
C3683       C  0.52525902  0.78477619  0.64236317    -0.03200
C3684       C  0.53888635  0.79995558  0.64083221    -0.06000
C3685       C  0.55920871  0.79622431  0.64037690    -0.16700
C3686       C  0.56620430  0.77640942  0.64209704     0.02200
C3687       C  0.51889767  0.74828731  0.64336073     0.12100
C3688       C  0.50342420  0.78961577  0.64197069     0.62800
H3689       H  0.53363818  0.81496838  0.63986091     0.12200
C3690       C  0.58781030  0.77076186  0.64075135     0.54900
H3691       H  0.55736831  0.74616689  0.64582685     0.08000
C3692       C  0.51618271  0.73738268  0.62632197    -0.05800
C3693       C  0.50186237  0.72281693  0.62624696    -0.06600
C3694       C  0.48983482  0.71931276  0.64232861    -0.16200
C3695       C  0.49287201  0.73003286  0.65955852    -0.01800
C3696       C  0.50787259  0.74396584  0.65987379    -0.09300
C3697       C  0.52809006  0.74135977  0.60817426     0.65000
H3698       H  0.49948684  0.71448580  0.61327567     0.10400
C3699       C  0.48025059  0.72726808  0.67742601     0.63400
H3700       H  0.51055033  0.75233283  0.67279310     0.07800
F3701       F  0.59593648  0.77903295  0.62433117    -0.19700
F3702       F  0.59064562  0.75059922  0.63965606    -0.15900
F3703       F  0.59758748  0.77712300  0.65692641    -0.19400
F3704       F  0.49486915  0.78406656  0.65922855    -0.22800
F3705       F  0.49461032  0.77975728  0.62703057    -0.24300
F3706       F  0.49978188  0.80953319  0.63931745    -0.18300
F3707       F  0.48766860  0.73703614  0.69318309    -0.20700
F3708       F  0.47923626  0.70752412  0.68221401    -0.21900
F3709       F  0.46165005  0.73476559  0.67396343    -0.19100
F3710       F  0.52147808  0.73069462  0.59264269    -0.19200
F3711       F  0.54748249  0.73616460  0.61130752    -0.23000
F3712       F  0.52684441  0.76108341  0.60323198    -0.24600
C3713       C  0.30521468  0.13743544  0.13805874    -0.11400
C3714       C  0.28942146  0.13146826  0.14955136     0.11200
C3715       C  0.27916663  0.11421275  0.14487714    -0.03200
C3716       C  0.28501573  0.10355582  0.12849178    -0.06000
C3717       C  0.30059579  0.10974632  0.11685973    -0.16700
C3718       C  0.31110175  0.12675682  0.12174217     0.02200
C3719       C  0.28236707  0.14515801  0.16463815     0.12100
C3720       C  0.26171326  0.10750890  0.15671239     0.62800
H3721       H  0.27712980  0.09057783  0.12431060     0.12200
C3722       C  0.32796786  0.13395400  0.10936395     0.54900
H3723       H  0.31250133  0.15093997  0.14167355     0.08000
C3724       C  0.29161744  0.14692705  0.18275702    -0.05800
C3725       C  0.28472355  0.16150925  0.19550346    -0.06600
C3726       C  0.26925012  0.17451291  0.19048023    -0.16200
C3727       C  0.25978738  0.17227377  0.17233949    -0.01800
C3728       C  0.26673050  0.15770839  0.15974945    -0.09300
C3729       C  0.30882973  0.13369118  0.18842703     0.65000
H3730       H  0.29185732  0.16327176  0.20930126     0.10400
C3731       C  0.24241301  0.18496187  0.16598799     0.63400
H3732       H  0.26025029  0.15623209  0.14559107     0.07800
F3733       F  0.33549241  0.15136239  0.11612816    -0.19700
F3734       F  0.32163456  0.13718501  0.09066108    -0.15900
F3735       F  0.34292027  0.12002978  0.10932935    -0.19400
F3736       F  0.24622249  0.12060187  0.15423798    -0.22800
F3737       F  0.26656386  0.10656573  0.17604892    -0.24300
F3738       F  0.25559986  0.08906959  0.15125784    -0.18300
F3739       F  0.24859650  0.20376497  0.16174382    -0.20700
F3740       F  0.22841029  0.18549478  0.18043359    -0.21900
F3741       F  0.23358748  0.17773756  0.14959570    -0.19100
F3742       F  0.31517341  0.13733757  0.20699290    -0.19200
F3743       F  0.32436192  0.13674085  0.17598936    -0.23000
F3744       F  0.30348482  0.11421072  0.18755891    -0.24600
C3745       C  0.31447767  0.38927750  0.21644116    -0.11400
C3746       C  0.32125057  0.37021855  0.21219780     0.11200
C3747       C  0.33880315  0.36776230  0.20144481    -0.03200
C3748       C  0.34915545  0.38458978  0.19558055    -0.06000
C3749       C  0.34275147  0.40365463  0.20036912    -0.16700
C3750       C  0.32505528  0.40610405  0.21095943     0.02200
C3751       C  0.30962558  0.35314933  0.21930408     0.12100
C3752       C  0.34661250  0.34746329  0.19623118     0.62800
H3753       H  0.36260638  0.38297183  0.18740216     0.12200
C3754       C  0.31719050  0.42633473  0.21631309     0.54900
H3755       H  0.30092776  0.39082203  0.22448156     0.08000
C3756       C  0.31134261  0.34585173  0.23845809    -0.05800
C3757       C  0.30028369  0.32939759  0.24406966    -0.06600
C3758       C  0.28718318  0.32044401  0.23139609    -0.16200
C3759       C  0.28518119  0.32799482  0.21232708    -0.01800
C3760       C  0.29640918  0.34434437  0.20665598    -0.09300
C3761       C  0.32465739  0.35555770  0.25295693     0.65000
H3762       H  0.30167080  0.32341294  0.25854790     0.10400
C3763       C  0.27190355  0.31833024  0.19779562     0.63400
H3764       H  0.29513364  0.35031655  0.19216682     0.07800
F3765       F  0.32915438  0.43450777  0.23004885    -0.19700
F3766       F  0.29844168  0.42550092  0.22390815    -0.15900
F3767       F  0.31653822  0.43840352  0.20014338    -0.19400
F3768       F  0.33330396  0.33813560  0.18459935    -0.22800
F3769       F  0.34962535  0.33631363  0.21275922    -0.24300
F3770       F  0.36424670  0.34838540  0.18636967    -0.18300
F3771       F  0.25268621  0.31955480  0.20398033    -0.20700
F3772       F  0.27732961  0.29878048  0.19579539    -0.21900
F3773       F  0.27294662  0.32727686  0.17980582    -0.19100
F3774       F  0.32486664  0.34564553  0.27049075    -0.19200
F3775       F  0.31819041  0.37459781  0.25618614    -0.23000
F3776       F  0.34364307  0.35595898  0.24601842    -0.24600
C3777       C  0.33920020  0.19183515  0.30855915    -0.11400
C3778       C  0.35682793  0.19028877  0.29827225     0.11200
C3779       C  0.35688773  0.19290722  0.27797325    -0.03200
C3780       C  0.33934488  0.19879944  0.26881656    -0.06000
C3781       C  0.32207264  0.20187996  0.27940064    -0.16700
C3782       C  0.32177491  0.19802375  0.29949608     0.02200
C3783       C  0.37517853  0.18826836  0.30955585     0.12100
C3784       C  0.37547445  0.19000972  0.26621400     0.62800
H3785       H  0.33909800  0.20168299  0.25342171     0.12200
C3786       C  0.30346183  0.20171463  0.31146928     0.54900
H3787       H  0.33953529  0.18941406  0.32402582     0.08000
C3788       C  0.38327880  0.20465539  0.31889476    -0.05800
C3789       C  0.40029941  0.20185026  0.32995004    -0.06600
C3790       C  0.40941456  0.18328559  0.33206451    -0.16200
C3791       C  0.40142036  0.16689703  0.32237100    -0.01800
C3792       C  0.38421519  0.16972785  0.31141485    -0.09300
C3793       C  0.37377385  0.22500145  0.31749196     0.65000
H3794       H  0.40636861  0.21421422  0.33748754     0.10400
C3795       C  0.41110814  0.14664444  0.32299879     0.63400
H3796       H  0.37753071  0.15742650  0.30429510     0.07800
F3797       F  0.29795183  0.22131333  0.30997013    -0.19700
F3798       F  0.30643409  0.19729771  0.33079499    -0.15900
F3799       F  0.28840560  0.19021090  0.30491010    -0.19400
F3800       F  0.38233615  0.17090144  0.26845786    -0.22800
F3801       F  0.38966992  0.20279740  0.27233946    -0.24300
F3802       F  0.37228923  0.19338813  0.24673283    -0.18300
F3803       F  0.40279232  0.13402506  0.30988522    -0.20700
F3804       F  0.40904976  0.13838736  0.34117681    -0.21900
F3805       F  0.43078806  0.14810037  0.31848352    -0.19100
F3806       F  0.38532006  0.23922542  0.32568344    -0.19200
F3807       F  0.35598100  0.22507388  0.32705107    -0.23000
F3808       F  0.37076343  0.23019057  0.29837945    -0.24600
C3809       C  0.22451540  0.33519977  0.33106485    -0.11400
C3810       C  0.21034434  0.32886788  0.34436120     0.11200
C3811       C  0.19911319  0.31209312  0.34028815    -0.03200
C3812       C  0.20353289  0.30130368  0.32362327    -0.06000
C3813       C  0.21867377  0.30676106  0.31103538    -0.16700
C3814       C  0.22908746  0.32422524  0.31444449     0.02200
C3815       C  0.20806131  0.33952186  0.36286789     0.12100
C3816       C  0.18289841  0.30530996  0.35374372     0.62800
H3817       H  0.19570748  0.28793244  0.32066276     0.12200
C3818       C  0.24563861  0.33055752  0.30124418     0.54900
H3819       H  0.23258690  0.34833692  0.33431744     0.08000
C3820       C  0.21988868  0.33494871  0.37907288    -0.05800
C3821       C  0.21544056  0.34393682  0.39679172    -0.06600
C3822       C  0.19984210  0.35758312  0.39873635    -0.16200
C3823       C  0.18918041  0.36344339  0.38188534    -0.01800
C3824       C  0.19342695  0.35405560  0.36429298    -0.09300
C3825       C  0.23697743  0.32042728  0.37767269     0.65000
H3826       H  0.22387572  0.33985157  0.40944778     0.10400
C3827       C  0.17345282  0.37951349  0.38203690     0.63400
H3828       H  0.18495366  0.35761889  0.35149862     0.07800
F3829       F  0.25984010  0.31585592  0.30043783    -0.19700
F3830       F  0.25440238  0.34750660  0.30764904    -0.15900
F3831       F  0.23845853  0.33420623  0.28289906    -0.19400
F3832       F  0.16876509  0.31996578  0.35540689    -0.22800
F3833       F  0.19045837  0.30100081  0.37179871    -0.24300
F3834       F  0.17388171  0.28862764  0.34700650    -0.18300
F3835       F  0.16874421  0.38581527  0.36353771    -0.20700
F3836       F  0.17995225  0.39568502  0.39199681    -0.21900
F3837       F  0.15658744  0.37248451  0.39056442    -0.19100
F3838       F  0.24695818  0.31852195  0.39496995    -0.19200
F3839       F  0.25011584  0.32677470  0.36383710    -0.23000
F3840       F  0.23030227  0.30210299  0.37264325    -0.24600
C3841       C  0.22606859  0.65777908  0.16641767    -0.11400
C3842       C  0.20581065  0.65685883  0.16379372     0.11200
C3843       C  0.19301015  0.66593500  0.17715961    -0.03200
C3844       C  0.20111498  0.67655857  0.19241624    -0.06000
C3845       C  0.22149031  0.67899477  0.19422641    -0.16700
C3846       C  0.23428156  0.66934567  0.18091545     0.02200
C3847       C  0.19867351  0.64786669  0.14579536     0.12100
C3848       C  0.17092967  0.66486293  0.17493242     0.62800
H3849       H  0.19145792  0.68373989  0.20266640     0.12200
C3850       C  0.25630931  0.67234571  0.18072868     0.54900
H3851       H  0.23541263  0.65036554  0.15603930     0.08000
C3852       C  0.19892233  0.65839800  0.12809135    -0.05800
C3853       C  0.19262887  0.64893692  0.11135799    -0.06600
C3854       C  0.18676521  0.62923718  0.11165908    -0.16200
C3855       C  0.18696332  0.61855311  0.12934132    -0.01800
C3856       C  0.19276735  0.62822168  0.14624460    -0.09300
C3857       C  0.20638793  0.67934253  0.12677257     0.65000
H3858       H  0.19274621  0.65675173  0.09767031     0.10400
C3859       C  0.18212886  0.59686115  0.13023700     0.63400
H3860       H  0.19317760  0.62041374  0.15993091     0.07800
F3861       F  0.26530919  0.66335737  0.16513188    -0.19700
F3862       F  0.26459829  0.66444379  0.19731240    -0.15900
F3863       F  0.26014607  0.69222063  0.17942432    -0.19400
F3864       F  0.16523639  0.64546618  0.17572433    -0.22800
F3865       F  0.16530654  0.67297203  0.15739940    -0.24300
F3866       F  0.16111462  0.67495849  0.18936754    -0.18300
F3867       F  0.18557067  0.58885890  0.14838021    -0.20700
F3868       F  0.19362124  0.58662264  0.11715519    -0.21900
F3869       F  0.16258295  0.59432448  0.12591153    -0.19100
F3870       F  0.20413093  0.68725782  0.10842845    -0.19200
F3871       F  0.22610797  0.67958342  0.13123207    -0.23000
F3872       F  0.19625347  0.69128656  0.13950023    -0.24600
C3873       C  0.13394261  0.71439875  0.27808055    -0.11400
C3874       C  0.13382107  0.70460232  0.29595040     0.11200
C3875       C  0.15148749  0.69657603  0.30338763    -0.03200
C3876       C  0.16909816  0.70036726  0.29356015    -0.06000
C3877       C  0.16965106  0.71164260  0.27639297    -0.16700
C3878       C  0.15153639  0.71803215  0.26798355     0.02200
C3879       C  0.11525617  0.70413794  0.30728323     0.12100
C3880       C  0.15169631  0.68418450  0.32174357     0.62800
H3881       H  0.18275086  0.69479934  0.29954168     0.12200
C3882       C  0.15049110  0.72911705  0.24885532     0.54900
H3883       H  0.12006868  0.71983071  0.27247394     0.08000
C3884       C  0.10941995  0.72008459  0.31906232    -0.05800
C3885       C  0.09254284  0.71825234  0.33057901    -0.06600
C3886       C  0.08124389  0.70115102  0.33066213    -0.16200
C3887       C  0.08690241  0.68532368  0.31847500    -0.01800
C3888       C  0.10381906  0.68721138  0.30688204    -0.09300
C3889       C  0.12109138  0.73892552  0.31956552     0.65000
H3890       H  0.08818411  0.73018631  0.33993163     0.10400
C3891       C  0.07528727  0.66652690  0.31757143     0.63400
H3892       H  0.10854861  0.67527860  0.29765749     0.07800
F3893       F  0.13141586  0.73407759  0.24381911    -0.19700
F3894       F  0.15815893  0.71747160  0.23433543    -0.15900
F3895       F  0.16086673  0.74635659  0.25000081    -0.19400
F3896       F  0.14108046  0.66732400  0.31887406    -0.22800
F3897       F  0.14344734  0.69461934  0.33681738    -0.24300
F3898       F  0.17052194  0.67859370  0.32705828    -0.18300
F3899       F  0.05568433  0.67087690  0.31441106    -0.20700
F3900       F  0.07741067  0.65623132  0.33472921    -0.21900
F3901       F  0.08171921  0.65443285  0.30282282    -0.19100
F3902       F  0.11317111  0.75238783  0.33237380    -0.19200
F3903       F  0.12123680  0.74761308  0.30145755    -0.23000
F3904       F  0.14015078  0.73481014  0.32517295    -0.24600
C3905       C  0.35185355  0.66862979  0.25929788    -0.11400
C3906       C  0.35458151  0.66567814  0.27913096     0.11200
C3907       C  0.34570793  0.67886593  0.29231595    -0.03200
C3908       C  0.33260970  0.69342736  0.28518628    -0.06000
C3909       C  0.32831334  0.69512186  0.26540125    -0.16700
C3910       C  0.33878465  0.68309856  0.25212145     0.02200
C3911       C  0.36545005  0.64763277  0.28550495     0.12100
C3912       C  0.34993480  0.67736214  0.31376825     0.62800
H3913       H  0.32490738  0.70300809  0.29513543     0.12200
C3914       C  0.33613166  0.68520761  0.23046895     0.54900
H3915       H  0.35926172  0.65868758  0.24946621     0.08000
C3916       C  0.35633175  0.62905704  0.28577695    -0.05800
C3917       C  0.36755530  0.61231235  0.29080960    -0.06600
C3918       C  0.38748404  0.61347404  0.29550635    -0.16200
C3919       C  0.39658619  0.63210581  0.29549118    -0.01800
C3920       C  0.38531800  0.64893810  0.29039435    -0.09300
C3921       C  0.33487752  0.62685012  0.28047965     0.65000
H3922       H  0.36086881  0.59797688  0.29081904     0.10400
C3923       C  0.41820501  0.63416544  0.30002512     0.63400
H3924       H  0.39199364  0.66326739  0.28986760     0.07800
F3925       F  0.35083481  0.67543340  0.22043557    -0.19700
F3926       F  0.33666133  0.70480968  0.22516667    -0.15900
F3927       F  0.31841765  0.67743138  0.22506723    -0.19400
F3928       F  0.36953715  0.68095298  0.31694601    -0.22800
F3929       F  0.34562308  0.65877233  0.32062939    -0.24300
F3930       F  0.33898577  0.69087677  0.32421144    -0.18300
F3931       F  0.42449920  0.65319590  0.29699467    -0.20700
F3932       F  0.42922433  0.62187035  0.28831872    -0.21900
F3933       F  0.42160691  0.62929623  0.31914972    -0.19100
F3934       F  0.32862012  0.60775620  0.28319734    -0.19200
F3935       F  0.33207958  0.63179802  0.26128891    -0.23000
F3936       F  0.32333131  0.63900209  0.29181331    -0.24600
C3937       C  0.27594379  0.82277748  0.33853813    -0.11400
C3938       C  0.29325179  0.83325931  0.33593399     0.11200
C3939       C  0.30466803  0.83036527  0.31910451    -0.03200
C3940       C  0.29771307  0.81762208  0.30484262    -0.06000
C3941       C  0.27994576  0.80768866  0.30709655    -0.16700
C3942       C  0.26902777  0.80996061  0.32440520     0.02200
C3943       C  0.29924851  0.84654708  0.35162596     0.12100
C3944       C  0.32417157  0.84048358  0.31640386     0.62800
H3945       H  0.30610336  0.81530702  0.29175478     0.12200
C3946       C  0.25040630  0.79864685  0.32823757     0.54900
H3947       H  0.26779054  0.82488070  0.35180741     0.08000
C3948       C  0.29080570  0.86554123  0.35383494    -0.05800
C3949       C  0.29611518  0.87668276  0.36995918    -0.06600
C3950       C  0.30933724  0.86931871  0.38380834    -0.16200
C3951       C  0.31767698  0.85023949  0.38163043    -0.01800
C3952       C  0.31246949  0.83922139  0.36545208    -0.09300
C3953       C  0.27618688  0.87390051  0.33930126     0.65000
H3954       H  0.28980449  0.89122435  0.37202227     0.10400
C3955       C  0.33173004  0.84047968  0.39586202     0.63400
H3956       H  0.31847935  0.82447801  0.36379034     0.07800
F3957       F  0.23569885  0.80568628  0.31629855    -0.19700
F3958       F  0.24405264  0.80062769  0.34711927    -0.15900
F3959       F  0.25360255  0.77883732  0.32489338    -0.19400
F3960       F  0.33706374  0.83431031  0.33064919    -0.22800
F3961       F  0.32161972  0.86063291  0.31749987    -0.24300
F3962       F  0.33257078  0.83622289  0.29870301    -0.18300
F3963       F  0.32401583  0.82282097  0.40206865    -0.20700
F3964       F  0.33531608  0.85167006  0.41195245    -0.21900
F3965       F  0.34939204  0.83672368  0.38668479    -0.19100
F3966       F  0.27040866  0.89291916  0.34376758    -0.19200
F3967       F  0.25963975  0.86246055  0.33898002    -0.23000
F3968       F  0.28448449  0.87419355  0.32110002    -0.24600
C3969       C  0.15183862  0.82152606  0.23143109    -0.11400
C3970       C  0.14358533  0.81677825  0.21360010     0.11200
C3971       C  0.15033520  0.79977143  0.20387174    -0.03200
C3972       C  0.16590688  0.78865473  0.21195873    -0.06000
C3973       C  0.17483087  0.79378062  0.22951082    -0.16700
C3974       C  0.16693283  0.81004609  0.23991876     0.02200
C3975       C  0.12996664  0.83145287  0.20447115     0.12100
C3976       C  0.14117528  0.79338510  0.18501050     0.62800
H3977       H  0.17162910  0.77609074  0.20418414     0.12200
C3978       C  0.17375114  0.81514912  0.26008149     0.54900
H3979       H  0.14665646  0.83477404  0.23847304     0.08000
C3980       C  0.11054638  0.83491961  0.21110844    -0.05800
C3981       C  0.09994050  0.85122820  0.20360025    -0.06600
C3982       C  0.10800266  0.86371951  0.18955565    -0.16200
C3983       C  0.12687455  0.85948473  0.18208429    -0.01800
C3984       C  0.13771329  0.84365633  0.19001466    -0.09300
C3985       C  0.10118993  0.82176825  0.22625572     0.65000
H3986       H  0.08558204  0.85493626  0.20930969     0.10400
C3987       C  0.13553944  0.87169027  0.16584596     0.63400
H3988       H  0.15262994  0.84091002  0.18528245     0.07800
F3989       F  0.16173031  0.82923937  0.26852307    -0.19700
F3990       F  0.19248901  0.82252746  0.25943362    -0.15900
F3991       F  0.17337703  0.79852587  0.27170826    -0.19400
F3992       F  0.14411048  0.80738456  0.17077985    -0.22800
F3993       F  0.12128553  0.79088385  0.18756710    -0.24300
F3994       F  0.14914735  0.77577694  0.17860222    -0.18300
F3995       F  0.13577950  0.89130786  0.17077213    -0.20700
F3996       F  0.12429435  0.86950501  0.14947493    -0.21900
F3997       F  0.15456560  0.86586251  0.16155382    -0.19100
F3998       F  0.08188937  0.82721174  0.22979360    -0.19200
F3999       F  0.11129401  0.82280496  0.24344780    -0.23000
F4000       F  0.10144822  0.80253374  0.22002296    -0.24600
C4001       C  0.09118701  0.05281873  0.36242290    -0.11400
C4002       C  0.09271764  0.03482394  0.37238572     0.11200
C4003       C  0.10551372  0.01990714  0.36541328    -0.03200
C4004       C  0.11530591  0.02306226  0.34781187    -0.06000
C4005       C  0.11330428  0.04082351  0.33748753    -0.16700
C4006       C  0.10181498  0.05637236  0.34533716     0.02200
C4007       C  0.07999070  0.03166150  0.38953184     0.12100
C4008       C  0.10866188  0.00067340  0.37637797     0.62800
H4009       H  0.12437099  0.01146227  0.34172249     0.12200
C4010       C  0.10047458  0.07646444  0.33566669     0.54900
H4011       H  0.08136704  0.06401835  0.36808346     0.08000
C4012       C  0.08412434  0.03995952  0.40767625    -0.05800
C4013       C  0.07158040  0.03585018  0.42325357    -0.06600
C4014       C  0.05516312  0.02378089  0.42130897    -0.16200
C4015       C  0.05091024  0.01564249  0.40303726    -0.01800
C4016       C  0.06332720  0.02004997  0.38736253    -0.09300
C4017       C  0.10176385  0.05294417  0.41065702     0.65000
H4018       H  0.07453333  0.04209881  0.43724553     0.10400
C4019       C  0.03405207  0.00163474  0.40019608     0.63400
H4020       H  0.06034285  0.01416306  0.37322348     0.07800
F4021       F  0.11867782  0.08509404  0.33593170    -0.19700
F4022       F  0.08743769  0.08890706  0.34506706    -0.15900
F4023       F  0.09427147  0.07466832  0.31679462    -0.19400
F4024       F  0.09157980  0.99005360  0.37657449    -0.22800
F4025       F  0.11416759  0.00441695  0.39515383    -0.24300
F4026       F  0.12322699  0.98915171  0.36805324    -0.18300
F4027       F  0.01637221  0.01136452  0.40301899    -0.20700
F4028       F  0.03569986  0.98609811  0.41314669    -0.21900
F4029       F  0.03393143  0.99395768  0.38176417    -0.19100
F4030       F  0.10383242  0.05821170  0.42978544    -0.19200
F4031       F  0.09972113  0.06999740  0.39981903    -0.23000
F4032       F  0.11869634  0.04312188  0.40509487    -0.24600
C4033       C  0.18062309  0.08823724  0.27081167    -0.11400
C4034       C  0.17440446  0.10709482  0.27634992     0.11200
C4035       C  0.15735901  0.10942055  0.28782156    -0.03200
C4036       C  0.14664222  0.09266726  0.29282254    -0.06000
C4037       C  0.15274395  0.07375027  0.28728053    -0.16700
C4038       C  0.17037469  0.07134423  0.27656908     0.02200
C4039       C  0.18585297  0.12431206  0.26986082     0.12100
C4040       C  0.15073935  0.12947733  0.29507917     0.62800
H4041       H  0.13327548  0.09423790  0.30113008     0.12200
C4042       C  0.17895068  0.05114086  0.27210437     0.54900
H4043       H  0.19373194  0.08686643  0.26206563     0.08000
C4044       C  0.20303480  0.13014820  0.27944403    -0.05800
C4045       C  0.21179776  0.14788464  0.27379431    -0.06600
C4046       C  0.20391995  0.15985305  0.25896437    -0.16200
C4047       C  0.18720241  0.15337170  0.24873003    -0.01800
C4048       C  0.17861158  0.13552801  0.25432940    -0.09300
C4049       C  0.21198880  0.11772168  0.29558739     0.65000
H4050       H  0.22469838  0.15279498  0.28130347     0.10400
C4051       C  0.17852432  0.16486393  0.23180746     0.63400
H4052       H  0.16564782  0.13043439  0.24703891     0.07800
F4053       F  0.17972234  0.03982925  0.28879426    -0.19700
F4054       F  0.19781417  0.05229194  0.26483643    -0.15900
F4055       F  0.16758384  0.04190586  0.25854592    -0.19400
F4056       F  0.14597922  0.14170462  0.27971118    -0.22800
F4057       F  0.16560804  0.13782471  0.30557351    -0.24300
F4058       F  0.13444843  0.12822309  0.30693275    -0.18300
F4059       F  0.19302760  0.16874064  0.21839838    -0.20700
F4060       F  0.17022116  0.18230702  0.23813564    -0.21900
F4061       F  0.16397939  0.15453043  0.22262742    -0.19100
F4062       F  0.22783074  0.12679903  0.30393708    -0.19200
F4063       F  0.21841026  0.09989811  0.28831703    -0.23000
F4064       F  0.19826494  0.11433823  0.30988598    -0.24600
C4065       C  0.10742749  0.99767613  0.24390384    -0.11400
C4066       C  0.11188039  0.97850786  0.25029968     0.11200
C4067       C  0.12105887  0.97554659  0.26843493    -0.03200
C4068       C  0.12458051  0.99198263  0.28001191    -0.06000
C4069       C  0.12017585  0.01116250  0.27362054    -0.16700
C4070       C  0.11154245  0.01418190  0.25521981     0.02200
C4071       C  0.10725646  0.96194266  0.23731082     0.12100
C4072       C  0.12759131  0.95524063  0.27533522     0.62800
H4073       H  0.13137341  0.99004616  0.29402538     0.12200
C4074       C  0.10654436  0.03463014  0.24757016     0.54900
H4075       H  0.10090960  0.99958691  0.22976329     0.08000
C4076       C  0.08801497  0.95462999  0.23550055    -0.05800
C4077       C  0.08465448  0.93936318  0.22239865    -0.06600
C4078       C  0.09985931  0.93131911  0.21124254    -0.16200
C4079       C  0.11908400  0.93864719  0.21300982    -0.01800
C4080       C  0.12240753  0.95402307  0.22597426    -0.09300
C4081       C  0.07104429  0.96317693  0.24703547     0.65000
H4082       H  0.07004446  0.93367496  0.22059960     0.10400
C4083       C  0.13590991  0.93054856  0.20097858     0.63400
H4084       H  0.13690341  0.96009844  0.22733938     0.07800
F4085       F  0.09581288  0.04501622  0.26113838    -0.19700
F4086       F  0.09553637  0.03398020  0.23083528    -0.15900
F4087       F  0.12361543  0.04451052  0.24344846    -0.19400
F4088       F  0.14230786  0.94816658  0.26343125    -0.22800
F4089       F  0.11202203  0.94250471  0.27502173    -0.24300
F4090       F  0.13482606  0.95556140  0.29398242    -0.18300
F4091       F  0.13104026  0.93137532  0.18164406    -0.20700
F4092       F  0.13982710  0.91125849  0.20630975    -0.21900
F4093       F  0.15286228  0.94114375  0.20341835    -0.19100
F4094       F  0.05409026  0.95257157  0.24459365    -0.19200
F4095       F  0.06732443  0.98231134  0.24107377    -0.23000
F4096       F  0.07554022  0.96299119  0.26647556    -0.24600
C4097       C  0.52586221  0.61027269  0.04729392    -0.11400
C4098       C  0.54516377  0.60895872  0.05418394     0.11200
C4099       C  0.55609142  0.59127273  0.05181597    -0.03200
C4100       C  0.54701996  0.57525561  0.04296283    -0.06000
C4101       C  0.52771199  0.57657938  0.03602224    -0.16700
C4102       C  0.51708957  0.59450057  0.03776314     0.02200
C4103       C  0.55306125  0.62604884  0.06472704     0.12100
C4104       C  0.57719617  0.58931996  0.05860460     0.62800
H4105       H  0.55489842  0.56139605  0.04154176     0.12200
C4106       C  0.49659235  0.59686059  0.02968705     0.54900
H4107       H  0.51769257  0.62384568  0.04948599     0.08000
C4108       C  0.55879816  0.64354212  0.05513153    -0.05800
C4109       C  0.56474314  0.65957712  0.06629153    -0.06600
C4110       C  0.56547880  0.65839825  0.08648241    -0.16200
C4111       C  0.56027205  0.64079012  0.09603780    -0.01800
C4112       C  0.55379486  0.62495219  0.08495213    -0.09300
C4113       C  0.55865584  0.64526064  0.03325842     0.65000
H4114       H  0.56861700  0.67332157  0.05936068     0.10400
C4115       C  0.56104491  0.63903982  0.11786719     0.63400
H4116       H  0.54897275  0.61159825  0.09200774     0.07800
F4117       F  0.48820091  0.61489557  0.03420377    -0.19700
F4118       F  0.48468525  0.58230396  0.03702485    -0.15900
F4119       F  0.49749379  0.59547975  0.00983149    -0.19400
F4120       F  0.57808966  0.59099411  0.07842960    -0.22800
F4121       F  0.58831779  0.60390432  0.05020036    -0.24300
F4122       F  0.58547475  0.57133770  0.05370671    -0.18300
F4123       F  0.54865781  0.65295740  0.12601035    -0.20700
F4124       F  0.57996226  0.64206533  0.12414999    -0.21900
F4125       F  0.55539564  0.62065228  0.12431030    -0.19100
F4126       F  0.56597760  0.66306658  0.02694223    -0.19200
F4127       F  0.53975578  0.64380483  0.02639772    -0.23000
F4128       F  0.57010364  0.63041450  0.02541104    -0.24600
C4129       C  0.63680288  0.71894985  0.13555571    -0.11400
C4130       C  0.64352945  0.70440564  0.14847070     0.11200
C4131       C  0.63375451  0.68620490  0.14963461    -0.03200
C4132       C  0.61690388  0.68351792  0.13826228    -0.06000
C4133       C  0.60959464  0.69850201  0.12603705    -0.16700
C4134       C  0.62019515  0.71618122  0.12398195     0.02200
C4135       C  0.65942090  0.70955879  0.16209803     0.12100
C4136       C  0.64083698  0.66994791  0.16322207     0.62800
H4137       H  0.60881562  0.66999044  0.13947469     0.12200
C4138       C  0.61428961  0.73197914  0.10940389     0.54900
H4139       H  0.64435103  0.73283448  0.13504613     0.08000
C4140       C  0.67938566  0.71022642  0.15672296    -0.05800
C4141       C  0.69325317  0.71594458  0.17056756    -0.06600
C4142       C  0.68780282  0.72127326  0.18949603    -0.16200
C4143       C  0.66753640  0.72041983  0.19472408    -0.01800
C4144       C  0.65385393  0.71475862  0.18078097    -0.09300
C4145       C  0.68593458  0.70521149  0.13638215     0.65000
H4146       H  0.70855440  0.71653029  0.16652167     0.10400
C4147       C  0.65985208  0.72587425  0.21458862     0.63400
H4148       H  0.63838863  0.71443642  0.18427391     0.07800
F4149       F  0.62900780  0.74550526  0.10667021    -0.19700
F4150       F  0.59775308  0.74198217  0.11574417    -0.15900
F4151       F  0.61050664  0.72351013  0.09174946    -0.19400
F4152       F  0.63802011  0.67556149  0.18215094    -0.22800
F4153       F  0.66055797  0.66613416  0.16022296    -0.24300
F4154       F  0.63087138  0.65265426  0.16038778    -0.18300
F4155       F  0.66509142  0.74489692  0.21876778    -0.20700
F4156       F  0.66736048  0.71289377  0.22825917    -0.21900
F4157       F  0.63962180  0.72505242  0.21575833    -0.19100
F4158       F  0.70613128  0.70526701  0.13454377    -0.19200
F4159       F  0.67823038  0.71886183  0.12348170    -0.23000
F4160       F  0.67952130  0.68673298  0.13153705    -0.24600
C4161       C  0.45162041  0.89935068  0.11679140    -0.11400
C4162       C  0.45416111  0.89825280  0.09672669     0.11200
C4163       C  0.45237092  0.87991404  0.08741297    -0.03200
C4164       C  0.44820675  0.86318634  0.09861139    -0.06000
C4165       C  0.44615173  0.86409401  0.11871413    -0.16700
C4166       C  0.44766611  0.88246959  0.12806162     0.02200
C4167       C  0.46070926  0.91596472  0.08592448     0.12100
C4168       C  0.45545952  0.87786098  0.06578874     0.62800
H4169       H  0.44707354  0.84899914  0.09176937     0.12200
C4170       C  0.44609266  0.88409343  0.14983491     0.54900
H4171       H  0.45337731  0.91347094  0.12360497     0.08000
C4172       C  0.44748847  0.93046877  0.07863104    -0.05800
C4173       C  0.45469745  0.94502584  0.06595866    -0.06600
C4174       C  0.47462387  0.94563041  0.06102319    -0.16200
C4175       C  0.48797082  0.93194932  0.06938041    -0.01800
C4176       C  0.48076424  0.91737594  0.08187290    -0.09300
C4177       C  0.42605570  0.93071471  0.08448493     0.65000
H4178       H  0.44484968  0.95596736  0.05970569     0.10400
C4179       C  0.50967823  0.93256699  0.06471132     0.63400
H4180       H  0.49064617  0.90639671  0.08801183     0.07800
F4181       F  0.45002901  0.90289785  0.15607344    -0.19700
F4182       F  0.45936629  0.87128061  0.15855486    -0.15900
F4183       F  0.42734084  0.87950338  0.15572851    -0.19400
F4184       F  0.47461130  0.88214123  0.06106506    -0.22800
F4185       F  0.44299577  0.89060623  0.05593807    -0.24300
F4186       F  0.45182626  0.85897305  0.05959842    -0.18300
F4187       F  0.52016187  0.91794712  0.07436719    -0.20700
F4188       F  0.51704654  0.95052834  0.07005233    -0.21900
F4189       F  0.51250679  0.93005791  0.04511835    -0.19100
F4190       F  0.41551987  0.94533326  0.07486957    -0.19200
F4191       F  0.42458503  0.93414522  0.10406940    -0.23000
F4192       F  0.41762988  0.91288002  0.08042767    -0.24600
C4193       C  0.37617944  0.81317884  0.16969441    -0.11400
C4194       C  0.38059386  0.80806801  0.18884816     0.11200
C4195       C  0.40019254  0.80891954  0.19535847    -0.03200
C4196       C  0.41479301  0.81496240  0.18229279    -0.06000
C4197       C  0.41041587  0.81985893  0.16302891    -0.16700
C4198       C  0.39073478  0.81889882  0.15650822     0.02200
C4199       C  0.36452386  0.80027172  0.20108843     0.12100
C4200       C  0.40571671  0.80299662  0.21583775     0.62800
H4201       H  0.42993553  0.81541150  0.18689335     0.12200
C4202       C  0.38405938  0.82270995  0.13587199     0.54900
H4203       H  0.36116765  0.81201284  0.16478178     0.08000
C4204       C  0.34992453  0.81263528  0.20934776    -0.05800
C4205       C  0.33389877  0.80392763  0.21878046    -0.06600
C4206       C  0.33236469  0.78345609  0.22042003    -0.16200
C4207       C  0.34744523  0.77116434  0.21305088    -0.01800
C4208       C  0.36319524  0.77980876  0.20320168    -0.09300
C4209       C  0.35103530  0.83486290  0.20782390     0.65000
H4210       H  0.32206124  0.81302031  0.22437682     0.10400
C4211       C  0.34661866  0.74901655  0.21534224     0.63400
H4212       H  0.37442474  0.77062585  0.19664742     0.07800
F4213       F  0.37065509  0.83817145  0.13567274    -0.19700
F4214       F  0.37499726  0.80611810  0.12903645    -0.15900
F4215       F  0.39903745  0.82720661  0.12327084    -0.19400
F4216       F  0.40300027  0.78306388  0.21847723    -0.22800
F4217       F  0.39418972  0.81317363  0.22890339    -0.24300
F4218       F  0.42511716  0.80696879  0.21979228    -0.18300
F4219       F  0.36276279  0.73969345  0.20719818    -0.20700
F4220       F  0.32999357  0.74207691  0.20651167    -0.21900
F4221       F  0.34612160  0.74418808  0.23476272    -0.19100
F4222       F  0.33651887  0.84403893  0.21861559    -0.19200
F4223       F  0.34885412  0.84077468  0.18881362    -0.23000
F4224       F  0.36893912  0.84106991  0.21452655    -0.24600
C4225       C  0.48013652  0.76173362  0.12600993    -0.11400
C4226       C  0.49894157  0.76742343  0.12046115     0.11200
C4227       C  0.50309775  0.78759662  0.11818483    -0.03200
C4228       C  0.48837875  0.80156297  0.12263252    -0.06000
C4229       C  0.46959835  0.79604477  0.12902008    -0.16700
C4230       C  0.46526344  0.77561057  0.13033532     0.02200
C4231       C  0.51411845  0.75182703  0.11753300     0.12100
C4232       C  0.52303913  0.79427986  0.11113518     0.62800
H4233       H  0.49162742  0.81704224  0.12137228     0.12200
C4234       C  0.44517107  0.76812092  0.13602578     0.54900
H4235       H  0.47735823  0.74614334  0.12728969     0.08000
C4236       C  0.52507935  0.74390118  0.13313736    -0.05800
C4237       C  0.53976682  0.72974783  0.12932047    -0.06600
C4238       C  0.54303008  0.72248724  0.11066559    -0.16200
C4239       C  0.53136876  0.72979095  0.09512924    -0.01800
C4240       C  0.51720743  0.74458620  0.09888241    -0.09300
C4241       C  0.52070033  0.74977221  0.15381418     0.65000
H4242       H  0.54844548  0.72369921  0.14108114     0.10400
C4243       C  0.53392112  0.72232613  0.07466974     0.63400
H4244       H  0.50823816  0.75055910  0.08729788     0.07800
F4245       F  0.44371862  0.74803912  0.13341708    -0.19700
F4246       F  0.43086127  0.77717973  0.12480802    -0.15900
F4247       F  0.44166961  0.77184860  0.15531657    -0.19400
F4248       F  0.52678459  0.78668743  0.09304395    -0.22800
F4249       F  0.53748433  0.78777676  0.12370736    -0.24300
F4250       F  0.52402410  0.81455943  0.10978355    -0.18300
F4251       F  0.52780430  0.70308399  0.07365508    -0.20700
F4252       F  0.55338621  0.72330899  0.06920997    -0.21900
F4253       F  0.52299195  0.73334087  0.06155031    -0.19100
F4254       F  0.53394417  0.74135807  0.16666563    -0.19200
F4255       F  0.50217201  0.74357120  0.15885131    -0.23000
F4256       F  0.52148451  0.76994726  0.15571627    -0.24600
C4257       C  0.00705617  0.60537829  0.40785433    -0.11400
C4258       C  0.02401723  0.61611585  0.41144008     0.11200
C4259       C  0.03631313  0.61060355  0.42706944    -0.03200
C4260       C  0.03155871  0.59391181  0.43815408    -0.06000
C4261       C  0.01498691  0.58264321  0.43417770    -0.16700
C4262       C  0.00229120  0.58861703  0.41892574     0.02200
C4263       C  0.02816764  0.63354798  0.39902263     0.12100
C4264       C  0.05447705  0.62219999  0.43192540     0.62800
H4265       H  0.04104189  0.58928516  0.44990275     0.12200
C4266       C  0.98367625  0.57763710  0.41444607     0.54900
H4267       H  0.99765862  0.61016835  0.39609389     0.08000
C4268       C  0.03763550  0.63192005  0.38093497    -0.05800
C4269       C  0.04182107  0.64923705  0.37045409    -0.06600
C4270       C  0.03656290  0.66804874  0.37729387    -0.16200
C4271       C  0.02649091  0.66946260  0.39532908    -0.01800
C4272       C  0.02240563  0.65209003  0.40570609    -0.09300
C4273       C  0.04287146  0.61192342  0.37261526     0.65000
H4274       H  0.04890516  0.64812013  0.35654627     0.10400
C4275       C  0.02033403  0.68902702  0.40410075     0.63400
H4276       H  0.01474520  0.65278104  0.41939052     0.07800
F4277       F  0.98841407  0.55969063  0.40635669    -0.19700
F4278       F  0.97187258  0.58793924  0.40152261    -0.15900
F4279       F  0.97295579  0.57470394  0.43116072    -0.19400
F4280       F  0.04929166  0.64138382  0.43621287    -0.22800
F4281       F  0.06722295  0.62216030  0.41640709    -0.24300
F4282       F  0.06431234  0.61431990  0.44771806    -0.18300
F4283       F  0.00538796  0.69755329  0.39331749    -0.20700
F4284       F  0.03616300  0.70146088  0.40468862    -0.21900
F4285       F  0.01347573  0.68682593  0.42279865    -0.19100
F4286       F  0.05314932  0.61354855  0.35545012    -0.19200
F4287       F  0.02592163  0.60171457  0.36906148    -0.23000
F4288       F  0.05433540  0.60121015  0.38547418    -0.24600
C4289       C  0.05919503  0.57985426  0.57411748    -0.11400
C4290       C  0.06637668  0.56714654  0.58855120     0.11200
C4291       C  0.06268702  0.54681989  0.58727808    -0.03200
C4292       C  0.05239083  0.53983821  0.57119032    -0.06000
C4293       C  0.04549664  0.55233620  0.55613961    -0.16700
C4294       C  0.04901769  0.57293616  0.55780913     0.02200
C4295       C  0.07735210  0.57554299  0.60513207     0.12100
C4296       C  0.06967049  0.53248375  0.60288036     0.62800
H4297       H  0.04991152  0.52421753  0.57027029     0.12200
C4298       C  0.04289503  0.58775862  0.54242611     0.54900
H4299       H  0.06205760  0.59537452  0.57562158     0.08000
C4300       C  0.09785452  0.57853205  0.60446262    -0.05800
C4301       C  0.10753246  0.58435795  0.62139754    -0.06600
C4302       C  0.09728303  0.58781787  0.63863886    -0.16200
C4303       C  0.07656497  0.58682494  0.63872025    -0.01800
C4304       C  0.06692830  0.58049358  0.62193996    -0.09300
C4305       C  0.10941472  0.57568922  0.58593183     0.65000
H4306       H  0.12331449  0.58577698  0.62145365     0.10400
C4307       C  0.06471997  0.59295951  0.65626743     0.63400
H4308       H  0.05116434  0.57891581  0.62192816     0.07800
F4309       F  0.05362755  0.58417274  0.52591123    -0.19700
F4310       F  0.04643588  0.60690922  0.54787424    -0.15900
F4311       F  0.02306288  0.58644267  0.53870246    -0.19400
F4312       F  0.06194135  0.53785218  0.62054217    -0.22800
F4313       F  0.08987195  0.53252739  0.60398676    -0.24300
F4314       F  0.06397494  0.51343191  0.59924017    -0.18300
F4315       F  0.04480867  0.59342800  0.65247218    -0.20700
F4316       F  0.07009294  0.61159786  0.66181965    -0.21900
F4317       F  0.06808931  0.57992021  0.67133716    -0.19100
F4318       F  0.12900120  0.58006382  0.58828163    -0.19200
F4319       F  0.10189437  0.58797043  0.57168274    -0.23000
F4320       F  0.10825832  0.55644780  0.57990960    -0.24600
C4321       C  0.08531969  0.41980773  0.43860054    -0.11400
C4322       C  0.09399978  0.40917041  0.45382650     0.11200
C4323       C  0.08496720  0.40932885  0.47227011    -0.03200
C4324       C  0.06792802  0.42098180  0.47501606    -0.06000
C4325       C  0.06016808  0.43283192  0.46012108    -0.16700
C4326       C  0.06845964  0.43156862  0.44137414     0.02200
C4327       C  0.11380862  0.40026227  0.45063924     0.12100
C4328       C  0.09397351  0.39819857  0.48924030     0.62800
H4329       H  0.06161197  0.42234482  0.48930372     0.12200
C4330       C  0.06061928  0.44285578  0.42399390     0.54900
H4331       H  0.09236358  0.41971633  0.42456060     0.08000
C4332       C  0.11683136  0.38211750  0.44117735    -0.05800
C4333       C  0.13618819  0.37490857  0.43883393    -0.06600
C4334       C  0.15244895  0.38540458  0.44540592    -0.16200
C4335       C  0.14934062  0.40394955  0.45421985    -0.01800
C4336       C  0.13001665  0.41100514  0.45664787    -0.09300
C4337       C  0.09972334  0.37069986  0.43328363     0.65000
H4338       H  0.13880708  0.36105060  0.43163401     0.10400
C4339       C  0.16626914  0.41668638  0.46038633     0.63400
H4340       H  0.12731853  0.42512932  0.46331875     0.07800
F4341       F  0.05710010  0.42984567  0.40920864    -0.19700
F4342       F  0.07443509  0.45619569  0.41785417    -0.15900
F4343       F  0.04334901  0.45293473  0.42781527    -0.19400
F4344       F  0.11186751  0.40612859  0.49383324    -0.22800
F4345       F  0.09668593  0.37862802  0.48460395    -0.24300
F4346       F  0.08215976  0.39914321  0.50547463    -0.18300
F4347       F  0.15996501  0.43527570  0.46579964    -0.20700
F4348       F  0.17934948  0.41887618  0.44526447    -0.21900
F4349       F  0.17575637  0.40808830  0.47599180    -0.19100
F4350       F  0.10570420  0.35281920  0.42572253    -0.19200
F4351       F  0.09064626  0.38146984  0.41874601    -0.23000
F4352       F  0.08628565  0.36707338  0.44778415    -0.24600
C4353       C  0.96926293  0.44483474  0.38612095    -0.11400
C4354       C  0.94884804  0.44775439  0.38643746     0.11200
C4355       C  0.93980370  0.45605319  0.40293665    -0.03200
C4356       C  0.95174670  0.46277025  0.41794197    -0.06000
C4357       C  0.97221386  0.46103250  0.41705592    -0.16700
C4358       C  0.98117936  0.45140034  0.40126984     0.02200
C4359       C  0.93738400  0.44323078  0.36882352     0.12100
C4360       C  0.91766189  0.45795815  0.40456710     0.62800
H4361       H  0.94521293  0.46990073  0.43035474     0.12200
C4362       C  0.00315302  0.44805276  0.40061609     0.54900
H4363       H  0.97581578  0.43793070  0.37360087     0.08000
C4364       C  0.93609717  0.45666999  0.35320769    -0.05800
C4365       C  0.92440167  0.45197181  0.33728140    -0.06600
C4366       C  0.91324630  0.43467074  0.33662253    -0.16200
C4367       C  0.91452477  0.42122898  0.35261311    -0.01800
C4368       C  0.92704369  0.42564939  0.36813710    -0.09300
C4369       C  0.94655760  0.47625367  0.35367365     0.65000
H4370       H  0.92365129  0.46224480  0.32529937     0.10400
C4371       C  0.90252002  0.40260173  0.35400011     0.63400
H4372       H  0.92849922  0.41562267  0.38029147     0.07800
F4373       F  0.00906074  0.43873604  0.38385873    -0.19700
F4374       F  0.00874283  0.43637821  0.41615229    -0.15900
F4375       F  0.01259801  0.46584865  0.40153788    -0.19400
F4376       F  0.90950771  0.43949046  0.40437446    -0.22800
F4377       F  0.91024260  0.46893804  0.38929614    -0.24300
F4378       F  0.91196921  0.46704095  0.42150993    -0.18300
F4379       F  0.90530651  0.39277621  0.37138938    -0.20700
F4380       F  0.90791796  0.38982899  0.33944806    -0.21900
F4381       F  0.88276909  0.40728496  0.35264432    -0.19100
F4382       F  0.94331599  0.48727190  0.33706358    -0.19200
F4383       F  0.96652666  0.47315835  0.35544747    -0.23000
F4384       F  0.93990492  0.48714437  0.36917332    -0.24600
C4385       C  0.97344563  0.42249066  0.56917444    -0.11400
C4386       C  0.97522526  0.40334061  0.56218322     0.11200
C4387       C  0.98247127  0.40017144  0.54332018    -0.03200
C4388       C  0.98864150  0.41647126  0.53232563    -0.06000
C4389       C  0.98773294  0.43574523  0.53957133    -0.16700
C4390       C  0.97957696  0.43884320  0.55827936     0.02200
C4391       C  0.96949625  0.38687764  0.57513592     0.12100
C4392       C  0.98375755  0.37962662  0.53495548     0.62800
H4393       H  0.99456307  0.41419251  0.51800211     0.12200
C4394       C  0.97701904  0.45917058  0.56685973     0.54900
H4395       H  0.96748437  0.42444349  0.58353805     0.08000
C4396       C  0.98237581  0.37917523  0.58937893    -0.05800
C4397       C  0.97617425  0.36329862  0.60086106    -0.06600
C4398       C  0.95742967  0.35531877  0.59891430    -0.16200
C4399       C  0.94441911  0.36325952  0.58480777    -0.01800
C4400       C  0.95070993  0.37909770  0.57323183    -0.09300
C4401       C  0.00240936  0.38796366  0.59270017     0.65000
H4402       H  0.98587986  0.35713757  0.61176221     0.10400
C4403       C  0.92436989  0.35461431  0.58134886     0.63400
H4404       H  0.94105768  0.38550008  0.56241585     0.07800
F4405       F  0.96600652  0.45883170  0.58366083    -0.19700
F4406       F  0.96746465  0.47150264  0.55386104    -0.15900
F4407       F  0.99515403  0.46661313  0.57133613    -0.19400
F4408       F  0.96525282  0.37173277  0.53398547    -0.22800
F4409       F  0.99546904  0.36766516  0.54648999    -0.24300
F4410       F  0.99163004  0.37969519  0.51653294    -0.18300
F4411       F  0.91525936  0.36301046  0.56538547    -0.20700
F4412       F  0.91242768  0.35786241  0.59716371    -0.21900
F4413       F  0.92623104  0.33461752  0.57820978    -0.19100
F4414       F  0.01311789  0.37737716  0.60631146    -0.19200
F4415       F  0.00017317  0.40700088  0.59923661    -0.23000
F4416       F  0.01306638  0.38816942  0.57572087    -0.24600
C4417       C  0.68805854  0.71765438  0.33899389    -0.11400
C4418       C  0.70309047  0.71360042  0.35221034     0.11200
C4419       C  0.72220967  0.72051875  0.34859656    -0.03200
C4420       C  0.72579511  0.73066311  0.33122348    -0.06000
C4421       C  0.71090932  0.73416030  0.31758843    -0.16700
C4422       C  0.69151242  0.72824702  0.32184389     0.02200
C4423       C  0.69851971  0.70139625  0.36938471     0.12100
C4424       C  0.73873188  0.71715271  0.36298790     0.62800
H4425       H  0.74048163  0.73547399  0.32789001     0.12200
C4426       C  0.67439595  0.73352800  0.30878105     0.54900
H4427       H  0.67356807  0.71218876  0.34214362     0.08000
C4428       C  0.68894947  0.70924834  0.38580735    -0.05800
C4429       C  0.68584533  0.69682678  0.40182486    -0.06600
C4430       C  0.69194016  0.67707187  0.40166168    -0.16200
C4431       C  0.70130433  0.66918490  0.38520689    -0.01800
C4432       C  0.70411700  0.68147940  0.36908998    -0.09300
C4433       C  0.68196572  0.73054397  0.38633097     0.65000
H4434       H  0.67872736  0.70244392  0.41467154     0.10400
C4435       C  0.70885721  0.64808711  0.38504065     0.63400
H4436       H  0.71121089  0.67580181  0.35625700     0.07800
F4437       F  0.65659790  0.72978298  0.31760659    -0.19700
F4438       F  0.67546615  0.72259546  0.29211563    -0.15900
F4439       F  0.67474159  0.75335297  0.30418981    -0.19400
F4440       F  0.74284163  0.69727933  0.36490567    -0.22800
F4441       F  0.73336190  0.72455237  0.38077099    -0.24300
F4442       F  0.75575095  0.72635805  0.35722867    -0.18300
F4443       F  0.71705590  0.64315216  0.36741623    -0.20700
F4444       F  0.69365200  0.63539441  0.38875850    -0.21900
F4445       F  0.72306889  0.64555834  0.39907970    -0.19100
F4446       F  0.67513165  0.73570781  0.40443591    -0.19200
F4447       F  0.66688068  0.73339452  0.37328807    -0.23000
F4448       F  0.69712692  0.74294133  0.38158102    -0.24600
C4449       C  0.62102512  0.61818790  0.43486905    -0.11400
C4450       C  0.62277755  0.60403095  0.44955323     0.11200
C4451       C  0.64051811  0.60207755  0.45988807    -0.03200
C4452       C  0.65591679  0.61479865  0.45533133    -0.06000
C4453       C  0.65420368  0.62957411  0.44097156    -0.16700
C4454       C  0.63623160  0.63130304  0.43047908     0.02200
C4455       C  0.60557116  0.59164132  0.45397638     0.12100
C4456       C  0.64316350  0.58664788  0.47572854     0.62800
H4457       H  0.66955704  0.61316586  0.46313236     0.12200
C4458       C  0.63248754  0.64700040  0.41508390     0.54900
H4459       H  0.60731183  0.61904029  0.42705853     0.08000
C4460       C  0.59004645  0.59843071  0.46579662    -0.05800
C4461       C  0.57464141  0.58560921  0.47008594    -0.06600
C4462       C  0.57419732  0.56625610  0.46299632    -0.16200
C4463       C  0.58947231  0.55986294  0.45036869    -0.01800
C4464       C  0.60484866  0.57281193  0.44605694    -0.09300
C4465       C  0.58988024  0.61908773  0.47399670     0.65000
H4466       H  0.56280966  0.59062917  0.47932444     0.10400
C4467       C  0.59006785  0.53943708  0.44182155     0.63400
H4468       H  0.61672615  0.56825957  0.43663980     0.07800
F4469       F  0.63560855  0.66543624  0.42263908    -0.19700
F4470       F  0.61340118  0.64679235  0.40835711    -0.15900
F4471       F  0.64471691  0.64385276  0.39944560    -0.19400
F4472       F  0.64171892  0.56807205  0.46801336    -0.22800
F4473       F  0.62890319  0.58906968  0.48972727    -0.24300
F4474       F  0.66124986  0.58788684  0.48460612    -0.18300
F4475       F  0.60702327  0.53595529  0.43130637    -0.20700
F4476       F  0.57436996  0.53734927  0.42948460    -0.21900
F4477       F  0.58935695  0.52550657  0.45645335    -0.19100
F4478       F  0.57390281  0.62240615  0.48592661    -0.19200
F4479       F  0.58906906  0.63275920  0.45913301    -0.23000
F4480       F  0.60665037  0.62200395  0.48466487    -0.24600
C4481       C  0.84163316  0.68387344  0.61570377    -0.11400
C4482       C  0.82337718  0.69280954  0.61905213     0.11200
C4483       C  0.80948441  0.69418990  0.60405004    -0.03200
C4484       C  0.81418498  0.68582900  0.58614609    -0.06000
C4485       C  0.83231109  0.67615545  0.58262925    -0.16700
C4486       C  0.84649325  0.67542295  0.59778040     0.02200
C4487       C  0.81912046  0.70077119  0.63845965     0.12100
C4488       C  0.78979984  0.70459486  0.60696558     0.62800
H4489       H  0.80349528  0.68692484  0.57468306     0.12200
C4490       C  0.86662592  0.66583732  0.59553094     0.54900
H4491       H  0.85202989  0.68347860  0.62748276     0.08000
C4492       C  0.81182508  0.68877004  0.65353926    -0.05800
C4493       C  0.80595035  0.69772914  0.67080646    -0.06600
C4494       C  0.80715078  0.71812326  0.67334718    -0.16200
C4495       C  0.81572267  0.72993880  0.65872353    -0.01800
C4496       C  0.82165956  0.72092717  0.64144395    -0.09300
C4497       C  0.80996099  0.66668165  0.65129466     0.65000
H4498       H  0.79972912  0.68889996  0.68230194     0.10400
C4499       C  0.81879221  0.75183440  0.66131255     0.63400
H4500       H  0.82771022  0.72967151  0.62979404     0.07800
F4501       F  0.87750510  0.66663072  0.61233200    -0.19700
F4502       F  0.87701939  0.67552296  0.58127012    -0.15900
F4503       F  0.86475644  0.64621860  0.59091601    -0.19400
F4504       F  0.79271041  0.72427527  0.61061111    -0.22800
F4505       F  0.77992856  0.69631789  0.62239243    -0.24300
F4506       F  0.77793114  0.70333738  0.59087277    -0.18300
F4507       F  0.82762553  0.75521190  0.67889873    -0.20700
F4508       F  0.80099303  0.76176186  0.66055509    -0.21900
F4509       F  0.83069454  0.75951653  0.64700347    -0.19100
F4510       F  0.80224992  0.65790939  0.66768611    -0.19200
F4511       F  0.82821539  0.65831899  0.64793429    -0.23000
F4512       F  0.79778444  0.66262230  0.63598669    -0.24600
C4513       C  0.89170361  0.60942773  0.53038439    -0.11400
C4514       C  0.90813436  0.62028783  0.52487885     0.11200
C4515       C  0.90674517  0.64111446  0.52415831    -0.03200
C4516       C  0.88881280  0.65035896  0.52926044    -0.06000
C4517       C  0.87249564  0.63937201  0.53488576    -0.16700
C4518       C  0.87402782  0.61863219  0.53591780     0.02200
C4519       C  0.92638548  0.60904152  0.51995253     0.12100
C4520       C  0.92407062  0.65344500  0.51805365     0.62800
H4521       H  0.88732304  0.66622904  0.52876369     0.12200
C4522       C  0.85723219  0.60633267  0.54348732     0.54900
H4523       H  0.89296786  0.59353423  0.53057100     0.08000
C4524       C  0.93788652  0.59941873  0.53434662    -0.05800
C4525       C  0.95287466  0.58620186  0.52860646    -0.06600
C4526       C  0.95663619  0.58245425  0.50908546    -0.16200
C4527       C  0.94606005  0.59302371  0.49472729    -0.01800
C4528       C  0.93090036  0.60604772  0.50041113    -0.09300
C4529       C  0.93396816  0.60266134  0.55568264     0.65000
H4530       H  0.96107712  0.57785752  0.53934149     0.10400
C4531       C  0.95072091  0.59022666  0.47350539     0.63400
H4532       H  0.92188959  0.61336274  0.48960473     0.07800
F4533       F  0.86268212  0.58677211  0.54580066    -0.19700
F4534       F  0.84169226  0.60735662  0.53075195    -0.15900
F4535       F  0.85117716  0.61326199  0.56127414    -0.19400
F4536       F  0.92888140  0.64959296  0.49907155    -0.22800
F4537       F  0.94004096  0.64903842  0.52961950    -0.24300
F4538       F  0.91999003  0.67337465  0.51955271    -0.18300
F4539       F  0.94725311  0.57103137  0.46828016    -0.20700
F4540       F  0.97023174  0.59435694  0.47020927    -0.21900
F4541       F  0.93944790  0.60252911  0.46183765    -0.19100
F4542       F  0.94796949  0.59338964  0.56712680    -0.19200
F4543       F  0.91590591  0.59529335  0.56074650    -0.23000
F4544       F  0.93419953  0.62253274  0.55964424    -0.24600
C4545       C  0.76867090  0.64489421  0.51735984    -0.11400
C4546       C  0.76970456  0.65183738  0.49830236     0.11200
C4547       C  0.78752325  0.65936049  0.49104895    -0.03200
C4548       C  0.80390079  0.65959568  0.50330584    -0.06000
C4549       C  0.80278500  0.65300615  0.52250196    -0.16700
C4550       C  0.78503373  0.64509783  0.52962748     0.02200
C4551       C  0.75158926  0.65183296  0.48655892     0.12100
C4552       C  0.78911082  0.66747764  0.47061576     0.62800
H4553       H  0.81761094  0.66553697  0.49817517     0.12200
C4554       C  0.78347032  0.63629722  0.54980032     0.54900
H4555       H  0.75479369  0.63943905  0.52258921     0.08000
C4556       C  0.74491107  0.63470319  0.47734249    -0.05800
C4557       C  0.72797479  0.63613378  0.46587075    -0.06600
C4558       C  0.71783561  0.65405076  0.46336786    -0.16200
C4559       C  0.72400460  0.67095314  0.47328324    -0.01800
C4560       C  0.74077683  0.66945975  0.48495092    -0.09300
C4561       C  0.75579967  0.61514901  0.47934262     0.65000
H4562       H  0.72283652  0.62339020  0.45823602     0.10400
C4563       C  0.71274179  0.69033391  0.47180568     0.63400
H4564       H  0.74588518  0.68218233  0.49263680     0.07800
F4565       F  0.79838653  0.62258462  0.55266853    -0.19700
F4566       F  0.76582262  0.62691045  0.55261250    -0.15900
F4567       F  0.78477161  0.65088170  0.56345237    -0.19400
F4568       F  0.77707041  0.68387780  0.46854736    -0.22800
F4569       F  0.78355825  0.65343025  0.45751946    -0.24300
F4570       F  0.80805482  0.67295395  0.46617193    -0.18300
F4571       F  0.69328184  0.68742547  0.47647289    -0.20700
F4572       F  0.71397152  0.69781938  0.45324453    -0.21900
F4573       F  0.72005026  0.70423410  0.48423393    -0.19100
F4574       F  0.74697275  0.60051280  0.46885558    -0.19200
F4575       F  0.75615256  0.60924806  0.49847055    -0.23000
F4576       F  0.77481339  0.61698428  0.47275298    -0.24600
C4577       C  0.66675062  0.16413335  0.23118118    -0.11400
C4578       C  0.64907117  0.17140894  0.22360531     0.11200
C4579       C  0.64498763  0.19184571  0.22408662    -0.03200
C4580       C  0.65925944  0.20444188  0.23158915    -0.06000
C4581       C  0.67744836  0.19732875  0.23856654    -0.16700
C4582       C  0.68122957  0.17661923  0.23836386     0.02200
C4583       C  0.63493492  0.15683225  0.21618963     0.12100
C4584       C  0.62576128  0.20032745  0.21649472     0.62800
H4585       H  0.65634519  0.22012427  0.23184001     0.12200
C4586       C  0.70059840  0.16746129  0.24484752     0.54900
H4587       H  0.66919617  0.14836317  0.23111492     0.08000
C4588       C  0.63744106  0.14757899  0.19808095    -0.05800
C4589       C  0.62511997  0.13192103  0.19330105    -0.06600
C4590       C  0.61073317  0.12508847  0.20612640    -0.16200
C4591       C  0.60758433  0.13508912  0.22377600    -0.01800
C4592       C  0.61995950  0.15064708  0.22858661    -0.09300
C4593       C  0.65335997  0.15386350  0.18406954     0.65000
H4594       H  0.62725063  0.12426495  0.17981196     0.10400
C4595       C  0.59123249  0.12952346  0.23752423     0.63400
H4596       H  0.61846104  0.15772543  0.24245871     0.07800
F4597       F  0.70152124  0.14741637  0.24156701    -0.19700
F4598       F  0.70305849  0.17022995  0.26443012    -0.15900
F4599       F  0.71580592  0.17590341  0.23468588    -0.19400
F4600       F  0.61028741  0.19283110  0.22696659    -0.22800
F4601       F  0.62352649  0.19551042  0.19731425    -0.24300
F4602       F  0.62494940  0.22061403  0.21787537    -0.18300
F4603       F  0.59603578  0.11209574  0.24685669    -0.20700
F4604       F  0.57393401  0.12745051  0.22743130    -0.21900
F4605       F  0.58809241  0.14372749  0.25141361    -0.19100
F4606       F  0.65242292  0.14377059  0.16684812    -0.19200
F4607       F  0.67160703  0.15026645  0.19205407    -0.23000
F4608       F  0.65138229  0.17369833  0.17993186    -0.24600
C4609       C  0.71029799  0.32828143  0.15501301    -0.11400
C4610       C  0.70018924  0.31543307  0.14303540     0.11200
C4611       C  0.69652364  0.29604611  0.14944441    -0.03200
C4612       C  0.70267018  0.29034597  0.16803940    -0.06000
C4613       C  0.71297269  0.30306442  0.18014346    -0.16700
C4614       C  0.71687301  0.32251039  0.17350724     0.02200
C4615       C  0.69457817  0.32253430  0.12343264     0.12100
C4616       C  0.68665931  0.28124621  0.13652544     0.62800
H4617       H  0.70007598  0.27547394  0.17299482     0.12200
C4618       C  0.72780725  0.33727356  0.18561531     0.54900
H4619       H  0.71328374  0.34289148  0.14951486     0.08000
C4620       C  0.67745153  0.33395165  0.12009666    -0.05800
C4621       C  0.67367998  0.34103411  0.10127847    -0.06600
C4622       C  0.68656955  0.33731483  0.08572549    -0.16200
C4623       C  0.70362121  0.32532007  0.08920322    -0.01800
C4624       C  0.70733098  0.31845149  0.10811357    -0.09300
C4625       C  0.66351149  0.33904137  0.13650838     0.65000
H4626       H  0.66076374  0.35010803  0.09877831     0.10400
C4627       C  0.71789306  0.31928450  0.07334066     0.63400
H4628       H  0.72046038  0.30986903  0.11124054     0.07800
F4629       F  0.72696813  0.35598453  0.17757536    -0.19700
F4630       F  0.74733028  0.33175340  0.18695398    -0.15900
F4631       F  0.71966307  0.33828079  0.20387719    -0.19400
F4632       F  0.69788641  0.27818830  0.12018367    -0.22800
F4633       F  0.66833341  0.28813424  0.13109679    -0.24300
F4634       F  0.68436570  0.26326518  0.14571791    -0.18300
F4635       F  0.73127657  0.30514611  0.07966911    -0.20700
F4636       F  0.72841237  0.33536888  0.06712633    -0.21900
F4637       F  0.70777415  0.31139267  0.05805197    -0.19100
F4638       F  0.64727641  0.34961687  0.13008945    -0.19200
F4639       F  0.67304947  0.35025867  0.14998179    -0.23000
F4640       F  0.65698751  0.32208706  0.14539037    -0.24600
C4641       C  0.64034281  0.31679999  0.28163436    -0.11400
C4642       C  0.63222932  0.30686761  0.29753356     0.11200
C4643       C  0.64053375  0.28865182  0.30371442    -0.03200
C4644       C  0.65759297  0.28164781  0.29453194    -0.06000
C4645       C  0.66602672  0.29181954  0.27901570    -0.16700
C4646       C  0.65718809  0.30946618  0.27213521     0.02200
C4647       C  0.61481985  0.31557354  0.30738031     0.12100
C4648       C  0.63140727  0.27664296  0.31990619     0.62800
H4649       H  0.66461536  0.26812114  0.29945286     0.12200
C4650       C  0.66576355  0.32054451  0.25509234     0.54900
H4651       H  0.63342470  0.33041259  0.27683072     0.08000
C4652       C  0.61652302  0.32936261  0.32243506    -0.05800
C4653       C  0.59964713  0.33454953  0.33314669    -0.06600
C4654       C  0.58125131  0.32667367  0.32888485    -0.16200
C4655       C  0.57934913  0.31457087  0.31235634    -0.01800
C4656       C  0.59629261  0.30907715  0.30204443    -0.09300
C4657       C  0.63611289  0.33841990  0.32710212     0.65000
H4658       H  0.60084170  0.34428110  0.34534539     0.10400
C4659       C  0.55962235  0.30747733  0.30532060     0.63400
H4660       H  0.59529606  0.29903701  0.29005483     0.07800
F4661       F  0.68515040  0.32485199  0.25865912    -0.19700
F4662       F  0.65575545  0.33804430  0.25149465    -0.15900
F4663       F  0.66470828  0.30908669  0.23876456    -0.19400
F4664       F  0.61266929  0.27134629  0.31479031    -0.22800
F4665       F  0.63055420  0.28753832  0.33662344    -0.24300
F4666       F  0.64205214  0.25956599  0.32376710    -0.18300
F4667       F  0.56069297  0.30104669  0.28644950    -0.20700
F4668       F  0.54589876  0.32265075  0.30592214    -0.21900
F4669       F  0.55340416  0.29196587  0.31669635    -0.19100
F4670       F  0.63468031  0.35135686  0.34235420    -0.19200
F4671       F  0.64283482  0.34870398  0.31117228    -0.23000
F4672       F  0.64965362  0.32388602  0.33193975    -0.24600
C4673       C  0.83602620  0.34111122  0.25947882    -0.11400
C4674       C  0.83744385  0.34344677  0.27951790     0.11200
C4675       C  0.82694834  0.33086294  0.29203734    -0.03200
C4676       C  0.81551268  0.31606483  0.28395981    -0.06000
C4677       C  0.81351779  0.31409007  0.26390730    -0.16700
C4678       C  0.82412905  0.32664248  0.25135399     0.02200
C4679       C  0.84838857  0.36054468  0.28674994     0.12100
C4680       C  0.82716840  0.33352036  0.31377582     0.62800
H4681       H  0.80718318  0.30645701  0.29332097     0.12200
C4682       C  0.82302820  0.32484235  0.22956700     0.54900
H4683       H  0.84386392  0.35122790  0.25021732     0.08000
C4684       C  0.86907134  0.36045968  0.28838252    -0.05800
C4685       C  0.87832701  0.37787274  0.29398927    -0.06600
C4686       C  0.86752362  0.39520422  0.29743838    -0.16200
C4687       C  0.84680433  0.39504488  0.29644903    -0.01800
C4688       C  0.83759986  0.37767861  0.29090585    -0.09300
C4689       C  0.88127605  0.34228197  0.28364487     0.65000
H4690       H  0.89415062  0.37834903  0.29489591     0.10400
C4691       C  0.83442182  0.41302032  0.30150430     0.63400
H4692       H  0.82181660  0.37742397  0.28936074     0.07800
F4693       F  0.82640427  0.30552413  0.22428301    -0.19700
F4694       F  0.83684923  0.33632391  0.22036182    -0.15900
F4695       F  0.80473020  0.33093462  0.22319892    -0.19400
F4696       F  0.81873734  0.35146685  0.31840292    -0.22800
F4697       F  0.84619560  0.33282439  0.32051664    -0.24300
F4698       F  0.81677408  0.31900947  0.32326120    -0.18300
F4699       F  0.81472618  0.40861508  0.30282090    -0.20700
F4700       F  0.83653338  0.42741780  0.28749212    -0.21900
F4701       F  0.84022396  0.42026761  0.31914296    -0.19100
F4702       F  0.90101966  0.34511959  0.28696130    -0.19200
F4703       F  0.87897867  0.33765126  0.26441997    -0.23000
F4704       F  0.87538258  0.32656606  0.29489767    -0.24600
C4705       C  0.70780137  0.12681314  0.64768345    -0.11400
C4706       C  0.71711148  0.14500001  0.64660976     0.11200
C4707       C  0.72149341  0.15340105  0.62837786    -0.03200
C4708       C  0.71538437  0.14373675  0.61168401    -0.06000
C4709       C  0.70509196  0.12604135  0.61261896    -0.16700
C4710       C  0.70162235  0.11708169  0.63093399     0.02200
C4711       C  0.72111844  0.15583254  0.66462570     0.12100
C4712       C  0.73232900  0.17270393  0.62660201     0.62800
H4713       H  0.71818478  0.15028084  0.59766604     0.12200
C4714       C  0.69157241  0.09739192  0.63298776     0.54900
H4715       H  0.70484757  0.12062254  0.66182811     0.08000
C4716       C  0.70690194  0.16876534  0.67261614    -0.05800
C4717       C  0.71288948  0.18240627  0.68643210    -0.06600
C4718       C  0.73242663  0.18316737  0.69253811    -0.16200
C4719       C  0.74620789  0.16899551  0.68591339    -0.01800
C4720       C  0.74019371  0.15528148  0.67211530    -0.09300
C4721       C  0.68572209  0.16862441  0.66594639     0.65000
H4722       H  0.70256609  0.19327692  0.69188027     0.10400
C4723       C  0.76736558  0.16917425  0.69253437     0.63400
H4724       H  0.75068011  0.14496012  0.66601055     0.07800
F4725       F  0.67181799  0.09964398  0.62903940    -0.19700
F4726       F  0.69338346  0.08973808  0.65149246    -0.15900
F4727       F  0.69986516  0.08392464  0.62042486    -0.19400
F4728       F  0.75068129  0.17071581  0.63483810    -0.22800
F4729       F  0.72198127  0.18747874  0.63588585    -0.24300
F4730       F  0.73482416  0.17841423  0.60754759    -0.18300
F4731       F  0.77848301  0.15446938  0.68393168    -0.20700
F4732       F  0.76815123  0.16635455  0.71230232    -0.21900
F4733       F  0.77561318  0.18704280  0.68785458    -0.19100
F4734       F  0.67425307  0.18221962  0.67574078    -0.19200
F4735       F  0.67798890  0.15022425  0.66921406    -0.23000
F4736       F  0.68464600  0.17302989  0.64645953    -0.24600
C4737       C  0.62268908  0.08872605  0.55983898    -0.11400
C4738       C  0.61890060  0.07313905  0.57263199     0.11200
C4739       C  0.63292177  0.06773784  0.58678747    -0.03200
C4740       C  0.65050662  0.07822785  0.58758107    -0.06000
C4741       C  0.65459389  0.09339257  0.57434429    -0.16700
C4742       C  0.64028178  0.09915815  0.56054575     0.02200
C4743       C  0.60105003  0.06153858  0.56924717     0.12100
C4744       C  0.62968746  0.05046382  0.60039994     0.62800
H4745       H  0.66161601  0.07408669  0.59805156     0.12200
C4746       C  0.64328983  0.11650214  0.54695016     0.54900
H4747       H  0.61183664  0.09236277  0.54894151     0.08000
C4748       C  0.58208929  0.06813245  0.57482827    -0.05800
C4749       C  0.56571857  0.05769400  0.56836046    -0.06600
C4750       C  0.56791558  0.04134250  0.55632496    -0.16200
C4751       C  0.58694916  0.03422926  0.55160630    -0.01800
C4752       C  0.60318599  0.04456927  0.55812954    -0.09300
C4753       C  0.57915953  0.08641131  0.58698401     0.65000
H4754       H  0.55103415  0.06300323  0.57155613     0.10400
C4755       C  0.59109731  0.01624453  0.53930881     0.63400
H4756       H  0.61776842  0.03976557  0.55382557     0.07800
F4757       F  0.62633188  0.12143416  0.53697917    -0.19700
F4758       F  0.65767362  0.11198687  0.53357447    -0.15900
F4759       F  0.64878432  0.13276826  0.55735415    -0.19400
F4760       F  0.63003260  0.03316821  0.59009644    -0.22800
F4761       F  0.61177994  0.05239848  0.60957289    -0.24300
F4762       F  0.64404577  0.04915514  0.61444522    -0.18300
F4763       F  0.60072646  0.02195032  0.52264028    -0.20700
F4764       F  0.57443523  0.00629867  0.53416949    -0.21900
F4765       F  0.60306362  0.00326676  0.54949495    -0.19100
F4766       F  0.55955432  0.09001736  0.59096685    -0.19200
F4767       F  0.58637071  0.10265980  0.57737392    -0.23000
F4768       F  0.58889866  0.08411651  0.60432576    -0.24600
C4769       C  0.86769471  0.07354300  0.42878286    -0.11400
C4770       C  0.87950979  0.07770787  0.44474181     0.11200
C4771       C  0.87457235  0.09372193  0.45681560    -0.03200
C4772       C  0.85730868  0.10452606  0.45302680    -0.06000
C4773       C  0.84537892  0.10029545  0.43724404    -0.16700
C4774       C  0.85058570  0.08470807  0.42474504     0.02200
C4775       C  0.89716976  0.06529432  0.44856617     0.12100
C4776       C  0.88769388  0.09961950  0.47340163     0.62800
H4777       H  0.85308629  0.11666611  0.46223141     0.12200
C4778       C  0.83778862  0.07954960  0.40770313     0.54900
H4779       H  0.87194697  0.06139118  0.41961672     0.08000
C4780       C  0.89634351  0.04785986  0.45979300    -0.05800
C4781       C  0.91400980  0.03836667  0.46508434    -0.06600
C4782       C  0.93231755  0.04556353  0.45924644    -0.16200
C4783       C  0.93297264  0.06256423  0.44717882    -0.01800
C4784       C  0.91526697  0.07204376  0.44196910    -0.09300
C4785       C  0.87688892  0.03944771  0.46623225     0.65000
H4786       H  0.91367973  0.02526688  0.47407738     0.10400
C4787       C  0.95211056  0.07102056  0.44004927     0.63400
H4788       H  0.91537566  0.08522230  0.43307756     0.07800
F4789       F  0.84517800  0.06350071  0.39775780    -0.19700
F4790       F  0.83661925  0.09528076  0.39496625    -0.15900
F4791       F  0.81917237  0.07508166  0.41414261    -0.19400
F4792       F  0.90550962  0.10575537  0.46621585    -0.22800
F4793       F  0.89079912  0.08386828  0.48581623    -0.24300
F4794       F  0.87954846  0.11488437  0.48394902    -0.18300
F4795       F  0.96030870  0.05838982  0.42669527    -0.20700
F4796       F  0.96486440  0.07346561  0.45529820    -0.21900
F4797       F  0.94941912  0.08917006  0.43115152    -0.19100
F4798       F  0.87940464  0.02267951  0.47748975    -0.19200
F4799       F  0.86602541  0.03456000  0.45021947    -0.23000
F4800       F  0.86647943  0.05312036  0.47693796    -0.24600
C4801       C  0.79182068  0.17224172  0.33231884    -0.11400
C4802       C  0.79561222  0.18333314  0.34879937     0.11200
C4803       C  0.79514700  0.20412906  0.34756354    -0.03200
C4804       C  0.78964239  0.21311480  0.32995227    -0.06000
C4805       C  0.78425143  0.20195294  0.31390355    -0.16700
C4806       C  0.78565683  0.18116970  0.31494272     0.02200
C4807       C  0.79891867  0.17256586  0.36731676     0.12100
C4808       C  0.80005598  0.21670711  0.36483879     0.62800
H4809       H  0.78874122  0.22899432  0.32879928     0.12200
C4810       C  0.78010964  0.16837138  0.29807382     0.54900
H4811       H  0.79269213  0.15636361  0.33352862     0.08000
C4812       C  0.78326606  0.16390479  0.37760490    -0.05800
C4813       C  0.78747985  0.15285148  0.39436524    -0.06600
C4814       C  0.80669599  0.15026865  0.40126345    -0.16200
C4815       C  0.82230713  0.15970065  0.39132971    -0.01800
C4816       C  0.81808584  0.17037674  0.37426719    -0.09300
C4817       C  0.76216560  0.16623481  0.37086975     0.65000
H4818       H  0.77570828  0.14560115  0.40193053     0.10400
C4819       C  0.84325171  0.15911576  0.39874077     0.63400
H4820       H  0.82981376  0.17695065  0.36601061     0.07800
F4821       F  0.78639292  0.14909281  0.30075546    -0.19700
F4822       F  0.78853298  0.17535352  0.28123184    -0.15900
F4823       F  0.75996140  0.16846525  0.29614797    -0.19400
F4824       F  0.81939377  0.21354381  0.37002419    -0.22800
F4825       F  0.78811417  0.21193139  0.38027120    -0.24300
F4826       F  0.79748454  0.23656344  0.36086600    -0.18300
F4827       F  0.85495304  0.17236059  0.38894581    -0.20700
F4828       F  0.85137220  0.14056804  0.39630829    -0.21900
F4829       F  0.84354180  0.16396532  0.41807698    -0.19100
F4830       F  0.74913205  0.15797822  0.38383264    -0.19200
F4831       F  0.75977879  0.15708422  0.35333972    -0.23000
F4832       F  0.75735278  0.18596519  0.36887627    -0.24600
C4833       C  0.74979614  0.12491093  0.47758896    -0.11400
C4834       C  0.75687520  0.11952910  0.49589179     0.11200
C4835       C  0.77708141  0.11538901  0.49833723    -0.03200
C4836       C  0.78973049  0.11784228  0.48247886    -0.06000
C4837       C  0.78284344  0.12350710  0.46406022    -0.16700
C4838       C  0.76236240  0.12687521  0.46150163     0.02200
C4839       C  0.74270140  0.11809710  0.51220955     0.12100
C4840       C  0.78517800  0.10781375  0.51746327     0.62800
H4841       H  0.80525855  0.11501519  0.48436577     0.12200
C4842       C  0.75352966  0.13199887  0.44197133     0.54900
H4843       H  0.73419488  0.12759175  0.47605800     0.08000
C4844       C  0.73651816  0.13482295  0.52276532    -0.05800
C4845       C  0.72368693  0.13225550  0.53851270    -0.06600
C4846       C  0.71640982  0.11370307  0.54353127    -0.16200
C4847       C  0.72212133  0.09706073  0.53256611    -0.01800
C4848       C  0.73526456  0.09958853  0.51705762    -0.09300
C4849       C  0.74346050  0.15526188  0.51737837     0.65000
H4850       H  0.71907953  0.14479566  0.54700345     0.10400
C4851       C  0.71466357  0.07667710  0.53737431     0.63400
H4852       H  0.73986288  0.08709506  0.50850107     0.07800
F4853       F  0.73325320  0.13186434  0.44242584    -0.19700
F4854       F  0.75967673  0.11842962  0.42840857    -0.15900
F4855       F  0.75917080  0.15063148  0.43637266    -0.19400
F4856       F  0.77744924  0.08958164  0.52157644    -0.22800
F4857       F  0.78026474  0.12062572  0.53211712    -0.24300
F4858       F  0.80539129  0.10578021  0.51706175    -0.18300
F4859       F  0.72427439  0.06227968  0.52681701    -0.20700
F4860       F  0.69490063  0.07583110  0.53320565    -0.21900
F4861       F  0.71754732  0.07246166  0.55673851    -0.19100
F4862       F  0.73583804  0.16945045  0.52959133    -0.19200
F4863       F  0.73757895  0.15998322  0.49881233    -0.23000
F4864       F  0.76366138  0.15588451  0.51835904    -0.24600
C4865       C  0.87273135  0.20613181  0.16349002    -0.11400
C4866       C  0.87491648  0.20019575  0.18281256     0.11200
C4867       C  0.89121978  0.18830261  0.18829367    -0.03200
C4868       C  0.90543356  0.18352036  0.17423880    -0.06000
C4869       C  0.90348930  0.18993072  0.15502809    -0.16700
C4870       C  0.88688590  0.20129438  0.14945774     0.02200
C4871       C  0.85957108  0.20638920  0.19682961     0.12100
C4872       C  0.89344114  0.18060316  0.20882754     0.62800
H4873       H  0.91832228  0.17491575  0.17817443     0.12200
C4874       C  0.88434012  0.20840044  0.12879416     0.54900
H4875       H  0.85992477  0.21487057  0.15957027     0.08000
C4876       C  0.85888347  0.22552014  0.20481033    -0.05800
C4877       C  0.84275964  0.23087812  0.21647224    -0.06600
C4878       C  0.82774268  0.21760088  0.22051753    -0.16200
C4879       C  0.82955282  0.19794842  0.21413220    -0.01800
C4880       C  0.84504851  0.19289562  0.20172311    -0.09300
C4881       C  0.87477348  0.24034852  0.20058050     0.65000
H4882       H  0.84115440  0.24584003  0.22152606     0.10400
C4883       C  0.81563601  0.18183397  0.22015045     0.63400
H4884       H  0.84586389  0.17819781  0.19582551     0.07800
F4885       F  0.89959839  0.22055426  0.12371178    -0.19700
F4886       F  0.86693875  0.21881361  0.12623944    -0.15900
F4887       F  0.88425978  0.19244263  0.11661085    -0.19400
F4888       F  0.87884364  0.16728810  0.21276783    -0.22800
F4889       F  0.89202432  0.19588482  0.22178992    -0.24300
F4890       F  0.91134248  0.17119592  0.21163314    -0.18300
F4891       F  0.82636148  0.16553275  0.22630257    -0.20700
F4892       F  0.80432119  0.17665655  0.20453972    -0.21900
F4893       F  0.80346377  0.18736009  0.23519654    -0.19100
F4894       F  0.87202200  0.25745187  0.21098995    -0.19200
F4895       F  0.87474164  0.24523598  0.18118502    -0.23000
F4896       F  0.89289688  0.23245999  0.20544876    -0.24600
C4897       C  0.03678676  0.43138982  0.09872343    -0.11400
C4898       C  0.03105377  0.41179547  0.09687075     0.11200
C4899       C  0.01941637  0.40626801  0.08105582    -0.03200
C4900       C  0.01449173  0.42054837  0.06714139    -0.06000
C4901       C  0.02097038  0.44007629  0.06825731    -0.16700
C4902       C  0.03209956  0.44574546  0.08455991     0.02200
C4903       C  0.03769800  0.39702631  0.11137939     0.12100
C4904       C  0.01236956  0.38529413  0.07874747     0.62800
H4905       H  0.00554848  0.41639145  0.05501154     0.12200
C4906       C  0.03943997  0.46652376  0.08694516     0.54900
H4907       H  0.04533753  0.43521228  0.11124257     0.08000
C4908       C  0.05602119  0.38713810  0.10967104    -0.05800
C4909       C  0.05976957  0.37060588  0.12151728    -0.06600
C4910       C  0.04588325  0.36415931  0.13498424    -0.16200
C4911       C  0.02860625  0.37539215  0.13819124    -0.01800
C4912       C  0.02469328  0.39170929  0.12614252    -0.09300
C4913       C  0.07121283  0.39374435  0.09504487     0.65000
H4914       H  0.07317502  0.36206831  0.11977053     0.10400
C4915       C  0.01468952  0.37030550  0.15453031     0.63400
H4916       H  0.01109651  0.39998460  0.12762545     0.07800
F4917       F  0.05152386  0.46811026  0.10285861    -0.19700
F4918       F  0.02369530  0.47928274  0.08943466    -0.15900
F4919       F  0.05005758  0.47210724  0.07083227    -0.19400
F4920       F  0.00031373  0.38034318  0.09402194    -0.22800
F4921       F  0.02818575  0.37236570  0.07829030    -0.24300
F4922       F  0.00185870  0.38298039  0.06187506    -0.18300
F4923       F  0.02489235  0.36983124  0.17175961    -0.20700
F4924       F  0.00651956  0.35213614  0.15150611    -0.21900
F4925       F  0.99960268  0.38402542  0.15614423    -0.19100
F4926       F  0.08821013  0.38242760  0.09613240    -0.19200
F4927       F  0.07608894  0.41305043  0.09845543    -0.23000
F4928       F  0.06382143  0.39233427  0.07656611    -0.24600
C4929       C  0.11715828  0.32019951  0.18924581    -0.11400
C4930       C  0.11289858  0.30814514  0.20516604     0.11200
C4931       C  0.09317330  0.30424345  0.20989523    -0.03200
C4932       C  0.07842884  0.31043737  0.19694637    -0.06000
C4933       C  0.08280707  0.32115094  0.18008420    -0.16700
C4934       C  0.10239693  0.32696768  0.17657428     0.02200
C4935       C  0.12957769  0.29796240  0.21496261     0.12100
C4936       C  0.08780835  0.29368576  0.22850973     0.62800
H4937       H  0.06330897  0.30672135  0.19975634     0.12200
C4938       C  0.10795704  0.33941312  0.15914468     0.54900
H4939       H  0.13237288  0.32341781  0.18631521     0.08000
C4940       C  0.13788072  0.28053004  0.20722785    -0.05800
C4941       C  0.15479024  0.27239842  0.21588253    -0.06600
C4942       C  0.16374639  0.28120436  0.23179122    -0.16200
C4943       C  0.15482928  0.29809929  0.24014171    -0.01800
C4944       C  0.13791914  0.30636552  0.23135842    -0.09300
C4945       C  0.12922561  0.27090622  0.18950010     0.65000
H4946       H  0.16163060  0.25938568  0.20978581     0.10400
C4947       C  0.16256651  0.30684152  0.25862891     0.63400
H4948       H  0.13118139  0.31960712  0.23706619     0.07800
F4949       F  0.12801711  0.34181201  0.15775964    -0.19700
F4950       F  0.09938654  0.35789047  0.16061352    -0.15900
F4951       F  0.10172506  0.33057696  0.14239467    -0.19400
F4952       F  0.09390479  0.30465391  0.24401501    -0.22800
F4953       F  0.09679067  0.27535471  0.22935450    -0.24300
F4954       F  0.06777932  0.29117553  0.23017645    -0.18300
F4955       F  0.15070534  0.32210402  0.26511806    -0.20700
F4956       F  0.18108035  0.31415720  0.25566977    -0.21900
F4957       F  0.16333589  0.29249288  0.27289619    -0.19100
F4958       F  0.13864375  0.25331438  0.18521882    -0.19200
F4959       F  0.13099071  0.28328749  0.17368578    -0.23000
F4960       F  0.10963032  0.26702348  0.19251145    -0.24600
C4961       C  0.01087373  0.27377785  0.12055912    -0.11400
C4962       C  0.00328874  0.26278223  0.13595981     0.11200
C4963       C  0.00869864  0.26726844  0.15511118    -0.03200
C4964       C  0.02086027  0.28341531  0.15825137    -0.06000
C4965       C  0.02796982  0.29491301  0.14291454    -0.16700
C4966       C  0.02325281  0.28981519  0.12365178     0.02200
C4967       C  0.98969868  0.24655755  0.13168717     0.12100
C4968       C  0.00183513  0.25489413  0.17212232     0.62800
H4969       H  0.02490198  0.28725246  0.17282474     0.12200
C4970       C  0.03149893  0.30082926  0.10636719     0.54900
H4971       H  0.00681725  0.26976360  0.10603684     0.08000
C4972       C  0.96943495  0.25002796  0.12875513    -0.05800
C4973       C  0.95710193  0.23378942  0.12699800    -0.06600
C4974       C  0.96439806  0.21435826  0.12788457    -0.16200
C4975       C  0.98486903  0.21096427  0.12983463    -0.01800
C4976       C  0.99720922  0.22726926  0.13147795    -0.09300
C4977       C  0.96088500  0.27077230  0.12772348     0.65000
H4978       H  0.94147216  0.23614060  0.12526118     0.10400
C4979       C  0.99362710  0.19035922  0.13115661     0.63400
H4980       H  0.01285077  0.22511395  0.13329731     0.07800
F4981       F  0.02262995  0.31918455  0.10487667    -0.19700
F4982       F  0.02825965  0.29095117  0.08931296    -0.15900
F4983       F  0.05151876  0.30290727  0.10836115    -0.19400
F4984       F  0.00928393  0.23596979  0.17052368    -0.22800
F4985       F  0.98160243  0.25431773  0.17248897    -0.24300
F4986       F  0.00807153  0.26232888  0.18954973    -0.18300
F4987       F  0.01351519  0.19057716  0.13503165    -0.20700
F4988       F  0.99107912  0.18082339  0.11384628    -0.21900
F4989       F  0.98460709  0.17992212  0.14582057    -0.19100
F4990       F  0.94071912  0.27081562  0.12559358    -0.19200
F4991       F  0.96875624  0.28066855  0.11209082    -0.23000
F4992       F  0.96517779  0.28080393  0.14440621    -0.24600
C4993       C  0.10506826  0.04700137  0.92776725    -0.11400
C4994       C  0.11253564  0.06296835  0.93787730     0.11200
C4995       C  0.10155189  0.07130264  0.95311288    -0.03200
C4996       C  0.08432310  0.06200788  0.95906988    -0.06000
C4997       C  0.07750595  0.04485740  0.95016565    -0.16700
C4998       C  0.08749947  0.03787514  0.93346100     0.02200
C4999       C  0.13227772  0.07037064  0.93289876     0.12100
C5000       C  0.10816108  0.08984631  0.96316546     0.62800
H5001       H  0.07618625  0.06796759  0.97115545     0.12200
C5002       C  0.08026731  0.02054978  0.92208198     0.54900
H5003       H  0.11350790  0.04138136  0.91571647     0.08000
C5004       C  0.14934298  0.06247633  0.94173235    -0.05800
C5005       C  0.16723152  0.07196196  0.93865837    -0.06600
C5006       C  0.16857072  0.08926060  0.92743944    -0.16200
C5007       C  0.15145099  0.09665414  0.91790258    -0.01800
C5008       C  0.13365090  0.08673501  0.92060403    -0.09300
C5009       C  0.14853466  0.04441541  0.95479622     0.65000
H5010       H  0.18033621  0.06615611  0.94555003     0.10400
C5011       C  0.15141225  0.11541476  0.90580908     0.63400
H5012       H  0.12031940  0.09224258  0.91389622     0.07800
F5013       F  0.09232619  0.01620359  0.90655739    -0.19700
F5014       F  0.06175670  0.02470414  0.91493273    -0.15900
F5015       F  0.07970466  0.00419310  0.93395468    -0.19400
F5016       F  0.10892833  0.10518162  0.94997274    -0.22800
F5017       F  0.12652618  0.08693163  0.97115018    -0.24300
F5018       F  0.09545402  0.09535399  0.97780674    -0.18300
F5019       F  0.16291767  0.11278773  0.88956416    -0.20700
F5020       F  0.15848531  0.13076782  0.91658634    -0.21900
F5021       F  0.13275941  0.12071458  0.89966812    -0.19100
F5022       F  0.16679833  0.03928644  0.96208482    -0.19200
F5023       F  0.14166343  0.02863236  0.94453643    -0.23000
F5024       F  0.13617041  0.04794072  0.97024354    -0.24600
C5025       C  0.06811951  0.92856457  0.11929166    -0.11400
C5026       C  0.04768673  0.92715850  0.11896585     0.11200
C5027       C  0.03792480  0.91704973  0.13403047    -0.03200
C5028       C  0.04904170  0.90983679  0.14982588    -0.06000
C5029       C  0.06946185  0.91205259  0.15050629    -0.16700
C5030       C  0.07921455  0.92124784  0.13488628     0.02200
C5031       C  0.03716237  0.93672908  0.10256896     0.12100
C5032       C  0.01600032  0.91372211  0.13316781     0.62800
H5033       H  0.04187861  0.90259271  0.16183628     0.12200
C5034       C  0.10125847  0.92358280  0.13487266     0.54900
H5035       H  0.07526264  0.93596719  0.10735633     0.08000
C5036       C  0.03325174  0.95722899  0.10210334    -0.05800
C5037       C  0.02554513  0.96577039  0.08514206    -0.06600
C5038       C  0.02220215  0.95462208  0.06853963    -0.16200
C5039       C  0.02531737  0.93388441  0.06936933    -0.01800
C5040       C  0.03282949  0.92534980  0.08645436    -0.09300
C5041       C  0.03793438  0.97016874  0.11918208     0.65000
H5042       H  0.02310250  0.98152448  0.08439670     0.10400
C5043       C  0.02115849  0.92067278  0.05237751     0.63400
H5044       H  0.03617669  0.90974055  0.08711720     0.07800
F5045       F  0.10665403  0.93536173  0.15002468    -0.19700
F5046       F  0.10792632  0.93212774  0.11793251    -0.15900
F5047       F  0.11026047  0.90535837  0.13684101    -0.19400
F5048       F  0.01185924  0.90175526  0.11773561    -0.22800
F5049       F  0.00600820  0.93141174  0.13082258    -0.24300
F5050       F  0.00913575  0.90474638  0.14980525    -0.18300
F5051       F  0.03551292  0.92299802  0.03850525    -0.20700
F5052       F  0.00300136  0.92528623  0.04459947    -0.21900
F5053       F  0.02107198  0.90102553  0.05777914    -0.19100
F5054       F  0.03154588  0.98938318  0.11626111    -0.19200
F5055       F  0.05795012  0.97033719  0.12210091    -0.23000
F5056       F  0.02890602  0.96308149  0.13563763    -0.24600
C5057       C  0.96092122  0.10440521  0.05264356    -0.11400
C5058       C  0.95158534  0.09995620  0.07006002     0.11200
C5059       C  0.94658222  0.08026310  0.07427060    -0.03200
C5060       C  0.95227918  0.06537781  0.06123449    -0.06000
C5061       C  0.96254423  0.06964904  0.04408535    -0.16700
C5062       C  0.96678526  0.08969821  0.03962778     0.02200
C5063       C  0.94776402  0.11644231  0.08365269     0.12100
C5064       C  0.93540179  0.07508581  0.09251936     0.62800
H5065       H  0.94890908  0.05019661  0.06446253     0.12200
C5066       C  0.97831626  0.09580318  0.02180487     0.54900
H5067       H  0.96408679  0.11968175  0.04962273     0.08000
C5068       C  0.96273913  0.12392521  0.09550887    -0.05800
C5069       C  0.95851933  0.14036265  0.10710698    -0.06600
C5070       C  0.94001438  0.14972372  0.10700600    -0.16200
C5071       C  0.92510165  0.14233748  0.09488849    -0.01800
C5072       C  0.92930089  0.12574735  0.08343185    -0.09300
C5073       C  0.98323713  0.11485525  0.09555280     0.65000
H5074       H  0.96982067  0.14625195  0.11623294     0.10400
C5075       C  0.90515621  0.15236891  0.09328351     0.63400
H5076       H  0.91827378  0.12004944  0.07386586     0.07800
F5077       F  0.98263203  0.11562177  0.02175380    -0.19700
F5078       F  0.96751278  0.09224543  0.00537801    -0.15900
F5079       F  0.99591301  0.08546363  0.02121416    -0.19400
F5080       F  0.91733368  0.08455009  0.09238469    -0.22800
F5081       F  0.94576240  0.08092965  0.10852911    -0.24300
F5082       F  0.93231506  0.05507491  0.09414465    -0.18300
F5083       F  0.89370596  0.14399837  0.07918520    -0.20700
F5084       F  0.90743052  0.17199642  0.08853678    -0.21900
F5085       F  0.89525691  0.15077180  0.11062306    -0.19100
F5086       F  0.99512285  0.12334255  0.10921116    -0.19200
F5087       F  0.99188223  0.11748650  0.07768027    -0.23000
F5088       F  0.98236525  0.09496067  0.09963416    -0.24600
C5089       C  0.91636783  0.94439437  0.05809438    -0.11400
C5090       C  0.89815817  0.94798593  0.04930436     0.11200
C5091       C  0.89560974  0.96464607  0.03714934    -0.03200
C5092       C  0.91223911  0.97535159  0.03170478    -0.06000
C5093       C  0.93092245  0.97055100  0.03895222    -0.16700
C5094       C  0.93287476  0.95569046  0.05334043     0.02200
C5095       C  0.88267662  0.93296532  0.05137987     0.12100
C5096       C  0.87543727  0.97096738  0.02999324     0.62800
H5097       H  0.91090452  0.98718881  0.02120166     0.12200
C5098       C  0.95242171  0.95111338  0.06285898     0.54900
H5099       H  0.91776878  0.93196984  0.06790635     0.08000
C5100       C  0.88081109  0.91776187  0.03769209    -0.05800
C5101       C  0.86509229  0.90475559  0.03950835    -0.06600
C5102       C  0.85208506  0.90566881  0.05516851    -0.16200
C5103       C  0.85479341  0.91998350  0.06962823    -0.01800
C5104       C  0.86994351  0.93370664  0.06728002    -0.09300
C5105       C  0.89571063  0.91496554  0.02155907     0.65000
H5106       H  0.86293258  0.89352709  0.02877245     0.10400
C5107       C  0.84166433  0.92085470  0.08729673     0.63400
H5108       H  0.87202778  0.94511317  0.07783935     0.07800
F5109       F  0.96590975  0.94521625  0.04910402    -0.19700
F5110       F  0.95096108  0.93627113  0.07658020    -0.15900
F5111       F  0.95912099  0.96769396  0.07198331    -0.19400
F5112       F  0.86347581  0.97494719  0.04564823    -0.22800
F5113       F  0.86714111  0.95627519  0.01924116    -0.24300
F5114       F  0.87621015  0.98775567  0.01858346    -0.18300
F5115       F  0.84584335  0.93677518  0.09879731    -0.20700
F5116       F  0.84436361  0.90393561  0.09824431    -0.21900
F5117       F  0.82224341  0.92244024  0.08176534    -0.19100
F5118       F  0.89133606  0.89906352  0.01011157    -0.19200
F5119       F  0.91407237  0.91165564  0.02942979    -0.23000
F5120       F  0.89627493  0.93148025  0.00983310    -0.24600
C5121       C  0.96376954  0.07438230  0.89891829    -0.11400
C5122       C  0.95690494  0.06000435  0.88638948     0.11200
C5123       C  0.96247570  0.04007259  0.88928302    -0.03200
C5124       C  0.97396873  0.03506605  0.90542832    -0.06000
C5125       C  0.97977072  0.04923128  0.91879662    -0.16700
C5126       C  0.97499358  0.06934983  0.91530444     0.02200
C5127       C  0.94341321  0.06612542  0.87062811     0.12100
C5128       C  0.95601868  0.02411866  0.87557433     0.62800
H5129       H  0.97775334  0.01978636  0.90822666     0.12200
C5130       C  0.98138829  0.08548241  0.92877689     0.54900
H5131       H  0.95954183  0.08956256  0.89616084     0.08000
C5132       C  0.92293065  0.06799254  0.87364155    -0.05800
C5133       C  0.91076030  0.07164766  0.85759758    -0.06600
C5134       C  0.91859188  0.07386889  0.83901398    -0.16200
C5135       C  0.93913407  0.07374089  0.83631745    -0.01800
C5136       C  0.95129658  0.06972456  0.85226930    -0.09300
C5137       C  0.91405250  0.06601971  0.89367744     0.65000
H5138       H  0.89498771  0.07225377  0.85933232     0.10400
C5139       C  0.94804786  0.07798437  0.81668841     0.63400
H5140       H  0.96705128  0.06885076  0.85046716     0.07800
F5141       F  0.97018513  0.08506346  0.94540852    -0.19700
F5142       F  0.97912565  0.10391589  0.92034727    -0.15900
F5143       F  0.00095083  0.08291833  0.93346465    -0.19400
F5144       F  0.96342367  0.02779164  0.85734479    -0.22800
F5145       F  0.93580522  0.02373302  0.87465225    -0.24300
F5146       F  0.96261349  0.00565389  0.88141843    -0.18300
F5147       F  0.96824471  0.07928981  0.81761309    -0.20700
F5148       F  0.94069022  0.09569086  0.80962185    -0.21900
F5149       F  0.94349168  0.06317434  0.80402427    -0.19100
F5150       F  0.89385759  0.06818183  0.89334707    -0.19200
F5151       F  0.92141325  0.08037407  0.90551007    -0.23000
F5152       F  0.91857012  0.04774557  0.90149739    -0.24600
C5153       C  0.07738851  0.87401688  0.92428349    -0.11400
C5154       C  0.06357787  0.88604703  0.91465488     0.11200
C5155       C  0.05608655  0.87999178  0.89665562    -0.03200
C5156       C  0.06153643  0.86130152  0.88962916    -0.06000
C5157       C  0.07458136  0.84884938  0.89973113    -0.16700
C5158       C  0.08296395  0.85537265  0.91718525     0.02200
C5159       C  0.05623607  0.90419012  0.92448460     0.12100
C5160       C  0.04239672  0.89322165  0.88497032     0.62800
H5161       H  0.05551713  0.85614515  0.87618042     0.12200
C5162       C  0.09707874  0.84238717  0.92863636     0.54900
H5163       H  0.08322586  0.87910840  0.93783414     0.08000
C5164       C  0.04166284  0.90329315  0.93902619    -0.05800
C5165       C  0.03555116  0.92080228  0.94810160    -0.06600
C5166       C  0.04362790  0.93914824  0.94335904    -0.16200
C5167       C  0.05836449  0.93995381  0.92887520    -0.01800
C5168       C  0.06436232  0.92240745  0.91963453    -0.09300
C5169       C  0.03275363  0.88382147  0.94506271     0.65000
H5170       H  0.02445765  0.92025616  0.95928263     0.10400
C5171       C  0.06854687  0.95896371  0.92401809     0.63400
H5172       H  0.07571796  0.92268900  0.90870693     0.07800
F5173       F  0.08838299  0.82465325  0.93297245    -0.19700
F5174       F  0.10246839  0.85099814  0.94581825    -0.15900
F5175       F  0.11387085  0.83894463  0.91793015    -0.19400
F5176       F  0.05189471  0.91034854  0.88001055    -0.22800
F5177       F  0.02586819  0.89786287  0.89564848    -0.24300
F5178       F  0.03645604  0.88433663  0.86811920    -0.18300
F5179       F  0.07605609  0.96677556  0.94073010    -0.20700
F5180       F  0.05538870  0.97213075  0.91571128    -0.21900
F5181       F  0.08388995  0.95615519  0.91118710    -0.19100
F5182       F  0.01828231  0.88625963  0.95889002    -0.19200
F5183       F  0.04707782  0.87149830  0.95273898    -0.23000
F5184       F  0.02449599  0.87489927  0.92926479    -0.24600
loop_ 
_geom_bond_atom_site_label_1 
_geom_bond_atom_site_label_2 
_geom_bond_distance 
_geom_bond_site_symmetry_2 
_ccdc_geom_bond_type 
Zr1           O2   2.441   1_545  S
Zr1           O3   2.463       .  S
Zr1           O4   2.457       .  S
Zr1           O7   2.472   1_545  S
Zr1           O9   2.384       .  S
Zr1          O10   2.390   1_545  S
Zr1          O11   2.422   1_455  S
Zr1          O12   2.407   1_545  S
O2           H58   0.990   1_565  S
O2           H66   0.990       .  S
O3           C23   1.287       .  A
O4           C25   1.288   1_455  A
O5          Zr15   2.425   1_556  S
O5           C24   1.283       .  A
O6          Zr14   2.421       .  S
O6           C25   1.280       .  A
O7           C24   1.290       .  A
O8          Zr16   2.404   1_556  S
O8           C23   1.280       .  A
O9          Zr14   2.395   1_455  S
O9          Zr16   2.382   1_556  S
O10         Zr15   2.393   1_556  S
O10         Zr16   2.381   1_566  S
O10          H45   0.966       .  S
O11         Zr14   2.400       .  S
O11         Zr31   2.387   1_545  S
O11          H48   0.964       .  S
O12         Zr15   2.388   1_556  S
O12         Zr31   2.397   1_455  S
Zr13         O38   2.440       .  S
Zr13         O32   2.447   1_545  S
Zr13         O40   2.447   1_645  S
Zr13         O28   2.463       .  S
Zr13         O19   2.411   1_645  S
Zr13         O20   2.408   1_655  S
Zr13         O21   2.383       .  S
Zr13         O22   2.388   1_545  S
Zr14         O33   2.436       .  S
Zr14         O26   2.435       .  S
Zr14         O27   2.424   1_556  S
Zr14         O20   2.394   1_656  S
Zr14         O21   2.395   1_556  S
Zr15         O17   2.436       .  S
Zr15         O39   2.435       .  S
Zr15         O41   2.420       .  S
Zr15         O19   2.396       .  S
Zr15         O22   2.394   1_455  S
Zr16         O42   2.435       .  S
Zr16         O43   2.437       .  S
Zr16         O18   2.438       .  S
Zr16         O19   2.394   1_545  S
Zr16         O20   2.385       .  S
O17          H54   0.991       .  S
O18          H49   0.991       .  S
O18          H63   0.990   1_554  S
O20          H46   0.965       .  S
O21         Zr31   2.377   1_544  S
O22         Zr31   2.368   1_554  S
O22          H47   0.966       .  S
C23        C4997   1.500       .  S
C24        C5166   1.499       .  S
C25        C5125   1.483       .  S
O26          H62   0.990   1_655  S
O27          C29   1.282       .  A
O28          C29   1.291       .  A
C29        C5061   1.499       .  S
O30         Zr31   2.434       .  S
O30          H59   0.990       .  S
Zr31         O34   2.436       .  S
Zr31         O35   2.437       .  S
Zr31         O36   2.425   1_556  S
O32          C37   1.285       .  A
O33          H50   0.990       .  S
O33          H65   0.990       .  S
O34          H51   0.990   1_565  S
O35          H55   0.990       .  S
O35          H64   0.990       .  S
O36          C37   1.282       .  A
C37        C5093   1.483       .  S
O38          H57   0.990       .  S
O38          H61   0.990   1_655  S
O39          H53   0.990       .  S
O39          H60   0.990       .  S
O40          C44   1.287       .  A
O41          C44   1.281       .  A
O42          H52   0.990       .  S
O43          H56   0.990       .  S
C44        C5038   1.489       .  S
C67        C4910   1.471       .  S
C67          N68   1.358       .  A
C67          N72   1.357       .  A
N68          C69   1.356       .  A
C69        C4965   1.484       .  S
C69          N70   1.359       .  A
N70          C71   1.361       .  A
C71        C4933   1.483       .  S
C71          N72   1.358       .  A
C73        C5070   1.492       .  S
C73          N74   1.364       .  A
C73          N78   1.364       .  A
N74          C75   1.360       .  A
C75        C4974   1.485       .  S
C75          N76   1.355       .  A
N76          C77   1.353       .  A
C77        C4869   1.476       .  S
C77          N78   1.362       .  A
C79        C4814   1.492       .  S
C79          N80   1.365       .  A
C79          N84   1.358       .  A
N80          C81   1.362       .  A
C81        C4837   1.498       .  S
C81          N82   1.358       .  A
N82          C83   1.355       .  A
C83        C4773   1.474       .  S
C83          N84   1.356       .  A
C85        C4741   1.479       .  S
C85          N86   1.359       .  A
C85          N90   1.357       .  A
N86          C87   1.358       .  A
C87        C4846   1.484       .  S
C87          N88   1.359       .  A
N88          C89   1.361       .  A
C89        C4709   1.487       .  S
C89          N90   1.357       .  A
Zr91         O92   2.443       .  S
Zr91         O93   2.447       .  S
Zr91         O94   2.453       .  S
Zr91         O97   2.437       .  S
Zr91         O99   2.384       .  S
Zr91        O100   2.385       .  S
Zr91        O101   2.414       .  S
Zr91        O102   2.401       .  S
O92         H148   0.991       .  S
O92         H156   0.990       .  S
O93         C113   1.284       .  A
O94         C115   1.286       .  A
O95        Zr105   2.431       .  S
O95         C114   1.283       .  A
O96        Zr104   2.429       .  S
O96         C115   1.283       .  A
O97         C114   1.286       .  A
O98        Zr106   2.406       .  S
O98         C113   1.279       .  A
O99        Zr104   2.402       .  S
O99        Zr106   2.382       .  S
O100       Zr105   2.395       .  S
O100       Zr106   2.377       .  S
O100        H135   0.965       .  S
O101       Zr104   2.402       .  S
O101       Zr121   2.388       .  S
O101        H138   0.965       .  S
O102       Zr105   2.388       .  S
O102       Zr121   2.387       .  S
Zr103       O128   2.443       .  S
Zr103       O122   2.450       .  S
Zr103       O130   2.454       .  S
Zr103       O118   2.456       .  S
Zr103       O109   2.404       .  S
Zr103       O110   2.414       .  S
Zr103       O111   2.382       .  S
Zr103       O112   2.387       .  S
Zr104       O123   2.435       .  S
Zr104       O116   2.432       .  S
Zr104       O117   2.443       .  S
Zr104       O110   2.399       .  S
Zr104       O111   2.394       .  S
Zr105       O107   2.435       .  S
Zr105       O129   2.439       .  S
Zr105       O131   2.418       .  S
Zr105       O109   2.395       .  S
Zr105       O112   2.402       .  S
Zr106       O132   2.436       .  S
Zr106       O133   2.436       .  S
Zr106       O108   2.439       .  S
Zr106       O109   2.391       .  S
Zr106       O110   2.381       .  S
O107        H144   0.990       .  S
O108        H139   0.989       .  S
O108        H153   0.990       .  S
O110        H136   0.963       .  S
O111       Zr121   2.382       .  S
O112       Zr121   2.383       .  S
O112        H137   0.966       .  S
C113       C4878   1.475       .  S
C114       C4677   1.482       .  S
C115       C4805   1.482       .  S
O116        H152   0.990       .  S
O117        C119   1.285       .  A
O118        C119   1.290       .  A
C119       C4581   1.501       .  S
O120       Zr121   2.439       .  S
O120        H149   0.990       .  S
Zr121       O124   2.437       .  S
Zr121       O125   2.439       .  S
Zr121       O126   2.406       .  S
O122        C127   1.284       .  A
O123        H140   0.990       .  S
O123        H155   0.990       .  S
O124        H141   0.990       .  S
O125        H145   0.990       .  S
O125        H154   0.990       .  S
O126        C127   1.278       .  A
C127       C4645   1.475       .  S
O128        H147   0.991       .  S
O128        H151   0.990       .  S
O129        H143   0.989       .  S
O129        H150   0.989       .  S
O130        C134   1.288       .  A
O131        C134   1.280       .  A
O132        H142   0.990       .  S
O133        H146   0.990       .  S
C134       C4613   1.493       .  S
C157       C4517   1.478       .  S
C157        N158   1.358       .  A
C157        N162   1.360       .  A
N158        C159   1.357       .  A
C159       C4549   1.477       .  S
C159        N160   1.354       .  A
N160        C161   1.359       .  A
C161       C4485   1.504       .  S
C161        N162   1.360       .  A
C163       C4453   1.502       .  S
C163        N164   1.364       .  A
C163        N168   1.359       .  A
N164        C165   1.358       .  A
C165       C4558   1.472       .  S
C165        N166   1.353       .  A
N166        C167   1.352       .  A
C167       C4430   1.467       .  S
C167        N168   1.358       .  A
Zr169       O170   2.443   1_455  S
Zr169       O171   2.462       .  S
Zr169       O172   2.453   1_455  S
Zr169       O175   2.447   1_455  S
Zr169       O177   2.384       .  S
Zr169       O178   2.387       .  S
Zr169       O179   2.419   1_455  S
Zr169       O180   2.408   1_455  S
O170        H226   0.991       .  S
O170        H234   0.990       .  S
O171        C191   1.287       .  A
O172        C193   1.285       .  A
O173       Zr183   2.433       .  S
O173        C192   1.284   1_455  A
O174       Zr182   2.433   1_655  S
O174        C193   1.283       .  A
O175        C192   1.288       .  A
O176       Zr184   2.409       .  S
O176        C191   1.278       .  A
O177       Zr182   2.399       .  S
O177       Zr184   2.381       .  S
O178       Zr183   2.400       .  S
O178       Zr184   2.380       .  S
O178        H213   0.966       .  S
O179       Zr182   2.401   1_655  S
O179       Zr199   2.399       .  S
O179        H216   0.965       .  S
O180       Zr183   2.389   1_655  S
O180       Zr199   2.394       .  S
Zr181       O206   2.432       .  S
Zr181       O200   2.454   1_455  S
Zr181       O208   2.473       .  S
Zr181       O196   2.437       .  S
Zr181       O187   2.402       .  S
Zr181       O188   2.411       .  S
Zr181       O189   2.384   1_455  S
Zr181       O190   2.381   1_455  S
Zr182       O201   2.437   1_455  S
Zr182       O194   2.435       .  S
Zr182       O195   2.434       .  S
Zr182       O188   2.397       .  S
Zr182       O189   2.391   1_455  S
Zr183       O185   2.435   1_455  S
Zr183       O207   2.438       .  S
Zr183       O209   2.432       .  S
Zr183       O187   2.391       .  S
Zr183       O190   2.391   1_455  S
Zr184       O210   2.435       .  S
Zr184       O211   2.435       .  S
Zr184       O186   2.436       .  S
Zr184       O187   2.395       .  S
Zr184       O188   2.390       .  S
O185        H222   0.990   1_655  S
O186        H217   0.990       .  S
O186        H231   0.990       .  S
O188        H214   0.966       .  S
O189       Zr199   2.371       .  S
O190       Zr199   2.380       .  S
O190        H215   0.966       .  S
C191       C4325   1.479       .  S
C192       C4389   1.496       .  S
C193       C4357   1.477       .  S
O194        H230   0.990       .  S
O195        C197   1.284       .  A
O196        C197   1.286       .  A
C197       C4261   1.488       .  S
O198       Zr199   2.439       .  S
O198        H227   0.990       .  S
Zr199       O202   2.439       .  S
Zr199       O203   2.439       .  S
Zr199       O204   2.421       .  S
O200        C205   1.287       .  A
O201        H218   0.990       .  S
O201        H233   0.990       .  S
O202        H219   0.990       .  S
O203        H223   0.990       .  S
O203        H232   0.989       .  S
O204        C205   1.281       .  A
C205       C4526   1.480       .  S
O206        H225   0.989       .  S
O206        H229   0.990       .  S
O207        H221   0.990       .  S
O207        H228   0.990       .  S
O208        C212   1.290       .  A
O209        C212   1.286       .  A
O210        H220   0.990       .  S
O211        H224   0.990       .  S
C212       C4293   1.520       .  S
C235       C4197   1.476       .  S
C235        N236   1.360       .  A
C235        N240   1.358       .  A
N236        C237   1.360       .  A
C237       C4165   1.482       .  S
C237        N238   1.360       .  A
N238        C239   1.359       .  A
C239       C4229   1.499       .  S
C239        N240   1.357       .  A
C241       C4110   1.474       .  S
C241        N242   1.361       .  A
C241        N246   1.357       .  A
N242        C243   1.361       .  A
C243       C4133   1.485       .  S
C243        N244   1.359       .  A
N244        C245   1.359       .  A
C245       C4238   1.486       .  S
C245        N246   1.355       .  A
C247       C4037   1.482       .  S
C247        N248   1.358       .  A
C247        N252   1.361       .  A
N248        C249   1.357       .  A
C249       C4069   1.480       .  S
C249        N250   1.357       .  A
N250        C251   1.358       .  A
C251       C4005   1.482       .  S
C251        N252   1.358       .  A
C253       C3982   1.477       .  S
C253        N254   1.357       .  A
C253        N258   1.364       .  A
N254        C255   1.353       .  A
C255       C4078   1.476       .  S
C255        N256   1.357       .  A
N256        C257   1.360       .  A
C257       C5029   1.480       .  S
C257        N258   1.365       .  A
Zr259       O260   2.441       .  S
Zr259       O261   2.447       .  S
Zr259       O262   2.462       .  S
Zr259       O265   2.440       .  S
Zr259       O267   2.379       .  S
Zr259       O268   2.392       .  S
Zr259       O269   2.410       .  S
Zr259       O270   2.409       .  S
O260        H316   0.990       .  S
O260        H324   0.990       .  S
O261        C281   1.285       .  A
O262        C283   1.288       .  A
O263       Zr273   2.431       .  S
O263        C282   1.284       .  A
O264       Zr272   2.422       .  S
O264        C283   1.281       .  A
O265        C282   1.286       .  A
O266       Zr274   2.416       .  S
O266        C281   1.280       .  A
O267       Zr272   2.394       .  S
O267       Zr274   2.382       .  S
O268       Zr273   2.397       .  S
O268       Zr274   2.378       .  S
O268        H303   0.966       .  S
O269       Zr272   2.396       .  S
O269       Zr289   2.396       .  S
O269        H306   0.965       .  S
O270       Zr273   2.399       .  S
O270       Zr289   2.394       .  S
Zr271       O296   2.440       .  S
Zr271       O290   2.444       .  S
Zr271       O298   2.434       .  S
Zr271       O286   2.428       .  S
Zr271       O277   2.403       .  S
Zr271       O278   2.403       .  S
Zr271       O279   2.379       .  S
Zr271       O280   2.378       .  S
Zr272       O291   2.437       .  S
Zr272       O284   2.433       .  S
Zr272       O285   2.428       .  S
Zr272       O278   2.391       .  S
Zr272       O279   2.391       .  S
Zr273       O275   2.433       .  S
Zr273       O297   2.435       .  S
Zr273       O299   2.446       .  S
Zr273       O277   2.390       .  S
Zr273       O280   2.387       .  S
Zr274       O300   2.436       .  S
Zr274       O301   2.437       .  S
Zr274       O276   2.437       .  S
Zr274       O277   2.393       .  S
Zr274       O278   2.393       .  S
O275        H312   0.989       .  S
O276        H307   0.991       .  S
O276        H321   0.989       .  S
O278        H304   0.965       .  S
O279       Zr289   2.376       .  S
O280       Zr289   2.376       .  S
O280        H305   0.965       .  S
C281       C4206   1.475       .  S
C282       C3941   1.482       .  S
C283       C3909   1.488       .  S
O284        H320   0.990       .  S
O285        C287   1.283       .  A
O286        C287   1.285       .  A
C287       C3845   1.491       .  S
O288       Zr289   2.440       .  S
O288        H317   0.990       .  S
Zr289       O292   2.437       .  S
Zr289       O293   2.438       .  S
Zr289       O294   2.430       .  S
O290        C295   1.285       .  A
O291        H308   0.990       .  S
O291        H323   0.990       .  S
O292        H309   0.990       .  S
O293        H313   0.990       .  S
O293        H322   0.989       .  S
O294        C295   1.285       .  A
C295       C3877   1.501       .  S
O296        H315   0.990       .  S
O296        H319   0.991       .  S
O297        H311   0.990       .  S
O297        H318   0.990       .  S
O298        C302   1.285       .  A
O299        C302   1.285       .  A
O300        H310   0.990       .  S
O301        H314   0.990       .  S
C302       C3973   1.501       .  S
Zr325       O326   2.442       .  S
Zr325       O327   2.440       .  S
Zr325       O328   2.445       .  S
Zr325       O331   2.435       .  S
Zr325       O333   2.378       .  S
Zr325       O334   2.387       .  S
Zr325       O335   2.407       .  S
Zr325       O336   2.401       .  S
O326        H382   0.990       .  S
O326        H390   0.990       .  S
O327        C347   1.285       .  A
O328        C349   1.285       .  A
O329       Zr339   2.428       .  S
O329        C348   1.284       .  A
O330       Zr338   2.426       .  S
O330        C349   1.281       .  A
O331        C348   1.284       .  A
O332       Zr340   2.417       .  S
O332        C347   1.279       .  A
O333       Zr338   2.393       .  S
O333       Zr340   2.377       .  S
O334       Zr339   2.395       .  S
O334       Zr340   2.379       .  S
O334        H369   0.966       .  S
O335       Zr338   2.395       .  S
O335       Zr355   2.396       .  S
O335        H372   0.966       .  S
O336       Zr339   2.388       .  S
O336       Zr355   2.383       .  S
Zr337       O362   2.440       .  S
Zr337       O356   2.449       .  S
Zr337       O364   2.463       .  S
Zr337       O352   2.469       .  S
Zr337       O343   2.404       .  S
Zr337       O344   2.411       .  S
Zr337       O345   2.384       .  S
Zr337       O346   2.389       .  S
Zr338       O357   2.436       .  S
Zr338       O350   2.434       .  S
Zr338       O351   2.417       .  S
Zr338       O344   2.404       .  S
Zr338       O345   2.394       .  S
Zr339       O341   2.435       .  S
Zr339       O363   2.436       .  S
Zr339       O365   2.430       .  S
Zr339       O343   2.386       .  S
Zr339       O346   2.397       .  S
Zr340       O366   2.437       .  S
Zr340       O367   2.435       .  S
Zr340       O342   2.435       .  S
Zr340       O343   2.388       .  S
Zr340       O344   2.395       .  S
O341        H378   0.990       .  S
O342        H373   0.989       .  S
O342        H387   0.989       .  S
O344        H370   0.965       .  S
O345       Zr355   2.378       .  S
O346       Zr355   2.385       .  S
O346        H371   0.966       .  S
C347       C3726   1.491       .  S
C348       C3781   1.470       .  S
C349       C4046   1.488       .  S
O350        H386   0.990       .  S
O351        C353   1.282       .  A
O352        C353   1.289       .  A
C353       C4942   1.488       .  S
O354       Zr355   2.439       .  S
O354        H383   0.990       .  S
Zr355       O358   2.438       .  S
Zr355       O359   2.440       .  S
Zr355       O360   2.406       .  S
O356        C361   1.285       .  A
O357        H374   0.990       .  S
O357        H389   0.990       .  S
O358        H375   0.991       .  S
O359        H379   0.990       .  S
O359        H388   0.989       .  S
O360        C361   1.279       .  A
C361       C3813   1.477       .  S
O362        H381   0.990       .  S
O362        H385   0.989       .  S
O363        H377   0.990       .  S
O363        H384   0.990       .  S
O364        C368   1.290       .  A
O365        C368   1.284       .  A
O366        H376   0.990       .  S
O367        H380   0.990       .  S
C368       C3758   1.490       .  S
C391       C3621   1.484       .  S
C391        N392   1.357       .  A
C391        N396   1.357       .  A
N392        C393   1.359       .  A
C393       C3653   1.478       .  S
C393        N394   1.359       .  A
N394        C395   1.361       .  A
C395       C3685   1.492       .  S
C395        N396   1.354       .  A
C397       C3589   1.476       .  S
C397        N398   1.361       .  A
C397        N402   1.358       .  A
N398        C399   1.361       .  A
C399       C3557   1.486       .  S
C399        N400   1.357       .  A
N400        C401   1.354       .  A
C401       C3694   1.482       .  S
C401        N402   1.358       .  A
Zr403       O404   2.439       .  S
Zr403       O405   2.444   1_545  S
Zr403       O406   2.459   1_545  S
Zr403       O409   2.435       .  S
Zr403       O411   2.380   1_545  S
Zr403       O412   2.393       .  S
Zr403       O413   2.406       .  S
Zr403       O414   2.404       .  S
O404        H460   0.988       .  S
O404        H468   0.990       .  S
O405        C425   1.284       .  A
O406        C427   1.288       .  A
O407       Zr417   2.433       .  S
O407        C426   1.283       .  A
O408       Zr416   2.420       .  S
O408        C427   1.283       .  A
O409        C426   1.286       .  A
O410       Zr418   2.423       .  S
O410        C425   1.284       .  A
O411       Zr416   2.393       .  S
O411       Zr418   2.383       .  S
O412       Zr417   2.397       .  S
O412       Zr418   2.376   1_545  S
O412        H447   0.966       .  S
O413       Zr416   2.400   1_545  S
O413       Zr433   2.384       .  S
O413        H450   0.965       .  S
O414       Zr417   2.387       .  S
O414       Zr433   2.380       .  S
Zr415       O440   2.441       .  S
Zr415       O434   2.447       .  S
Zr415       O442   2.423       .  S
Zr415       O430   2.442   1_545  S
Zr415       O421   2.407       .  S
Zr415       O422   2.407   1_545  S
Zr415       O423   2.376       .  S
Zr415       O424   2.383       .  S
Zr416       O435   2.437       .  S
Zr416       O428   2.434       .  S
Zr416       O429   2.425       .  S
Zr416       O422   2.392       .  S
Zr416       O423   2.392   1_565  S
Zr417       O419   2.432       .  S
Zr417       O441   2.438       .  S
Zr417       O443   2.436       .  S
Zr417       O421   2.385       .  S
Zr417       O424   2.398       .  S
Zr418       O444   2.435       .  S
Zr418       O445   2.438       .  S
Zr418       O420   2.437       .  S
Zr418       O421   2.393   1_565  S
Zr418       O422   2.392       .  S
O419        H456   0.989       .  S
O420        H451   0.991       .  S
O420        H465   0.990       .  S
O422        H448   0.965       .  S
O423       Zr433   2.381       .  S
O424       Zr433   2.377       .  S
O424        H449   0.966       .  S
C425       C3438   1.499       .  S
C426       C3525   1.504       .  S
C427       C3493   1.487       .  S
O428        H464   0.990       .  S
O429        C431   1.283       .  A
O430        C431   1.284       .  A
C431       C3662   1.477       .  S
O432       Zr433   2.438       .  S
O432        H461   0.990       .  S
Zr433       O436   2.436       .  S
Zr433       O437   2.439       .  S
Zr433       O438   2.399       .  S
O434        C439   1.285       .  A
O435        H452   0.990       .  S
O435        H467   0.990       .  S
O436        H453   0.990       .  S
O437        H457   0.990       .  S
O437        H466   0.990       .  S
O438        C439   1.278       .  A
C439       C4750   1.468       .  S
O440        H459   0.990   1_545  S
O440        H463   0.990   1_545  S
O441        H455   0.990       .  S
O441        H462   0.990       .  S
O442        C446   1.284       .  A
O443        C446   1.284       .  A
O444        H454   0.990   1_565  S
O445        H458   0.990       .  S
C446       C3461   1.486       .  S
C469       C3333   1.490       .  S
C469        N470   1.357       .  A
C469        N474   1.363       .  A
N470        C471   1.355       .  A
C471       C3397   1.480       .  S
C471        N472   1.360       .  A
N472        C473   1.362       .  A
C473       C3365   1.506       .  S
C473        N474   1.365       .  A
C475       C3822   1.497       .  S
C475        N476   1.364       .  A
C475        N480   1.359       .  A
N476        C477   1.361       .  A
C477       C3406   1.486       .  S
C477        N478   1.359       .  A
N478        C479   1.359       .  A
C479       C4334   1.488       .  S
C479        N480   1.357       .  A
C481       C3269   1.489       .  S
C481        N482   1.365       .  A
C481        N486   1.362       .  A
N482        C483   1.363       .  A
C483       C4654   1.489       .  S
C483        N484   1.353       .  A
N484        C485   1.352       .  A
C485       C3301   1.478       .  S
C485        N486   1.355       .  A
C487       C3534   1.486       .  S
C487        N488   1.360       .  A
C487        N492   1.358       .  A
N488        C489   1.358       .  A
C489       C3790   1.488       .  S
C489        N490   1.360       .  A
N490        C491   1.356       .  A
C491       C3310   1.472       .  S
C491        N492   1.356       .  A
C493       C3205   1.485       .  S
C493        N494   1.360       .  A
C493        N498   1.365       .  A
N494        C495   1.356       .  A
C495       C3237   1.475       .  S
C495        N496   1.353       .  A
N496        C497   1.356       .  A
C497       C3173   1.491       .  S
C497        N498   1.366       .  A
C499       C3109   1.489       .  S
C499        N500   1.353       .  A
C499        N504   1.364       .  A
N500        C501   1.352       .  A
C501       C3246   1.473       .  S
C501        N502   1.356       .  A
N502        C503   1.360       .  A
C503       C3150   1.482       .  S
C503        N504   1.364       .  A
Zr505       O506   2.439       .  S
Zr505       O507   2.445       .  S
Zr505       O508   2.440       .  S
Zr505       O511   2.452       .  S
Zr505       O513   2.387       .  S
Zr505       O514   2.380       .  S
Zr505       O515   2.410       .  S
Zr505       O516   2.403       .  S
O506        H562   0.990       .  S
O506        H570   0.990       .  S
O507        C527   1.285       .  A
O508        C529   1.284       .  A
O509       Zr519   2.425       .  S
O509        C528   1.285       .  A
O510       Zr518   2.436       .  S
O510        C529   1.284       .  A
O511        C528   1.287       .  A
O512       Zr520   2.417       .  S
O512        C527   1.283       .  A
O513       Zr518   2.396       .  S
O513       Zr520   2.378       .  S
O514       Zr519   2.383       .  S
O514       Zr520   2.375       .  S
O514        H549   0.966       .  S
O515       Zr518   2.399       .  S
O515       Zr535   2.389       .  S
O515        H552   0.965       .  S
O516       Zr519   2.389       .  S
O516       Zr535   2.399       .  S
Zr517       O542   2.439       .  S
Zr517       O536   2.449       .  S
Zr517       O544   2.453       .  S
Zr517       O532   2.469       .  S
Zr517       O523   2.406       .  S
Zr517       O524   2.410       .  S
Zr517       O525   2.382       .  S
Zr517       O526   2.388       .  S
Zr518       O537   2.437       .  S
Zr518       O530   2.435       .  S
Zr518       O531   2.439       .  S
Zr518       O524   2.397       .  S
Zr518       O525   2.397       .  S
Zr519       O521   2.435       .  S
Zr519       O543   2.437       .  S
Zr519       O545   2.419       .  S
Zr519       O523   2.396       .  S
Zr519       O526   2.391       .  S
Zr520       O546   2.437       .  S
Zr520       O547   2.435       .  S
Zr520       O522   2.436       .  S
Zr520       O523   2.390       .  S
Zr520       O524   2.392       .  S
O521        H558   0.990       .  S
O522        H553   0.990       .  S
O522        H567   0.990       .  S
O524        H550   0.972       .  S
O525       Zr535   2.378       .  S
O526       Zr535   2.379       .  S
O526        H551   0.966       .  S
C527       C3077   1.499       .  S
C528       C4462   1.499       .  S
C529       C3278   1.481       .  S
O530        H566   0.990       .  S
O531        C533   1.286       .  A
O532        C533   1.291       .  A
C533       C3374   1.498       .  S
O534       Zr535   2.439       .  S
O534        H563   0.991       .  S
Zr535       O538   2.438       .  S
Zr535       O539   2.438       .  S
Zr535       O540   2.413       .  S
O536        C541   1.284       .  A
O537        H554   0.991       .  S
O537        H569   0.990       .  S
O538        H555   0.990       .  S
O539        H559   0.990       .  S
O539        H568   0.990       .  S
O540        C541   1.282       .  A
C541       C3141   1.495       .  S
O542        H561   0.990       .  S
O542        H565   0.991       .  S
O543        H557   0.990       .  S
O543        H564   0.990       .  S
O544        C548   1.286       .  A
O545        C548   1.280       .  A
O546        H556   0.990       .  S
O547        H560   0.990       .  S
C548       C3598   1.484       .  S
C571       C3717   1.471       .  S
C571        N572   1.355       .  A
C571        N576   1.358       .  A
N572        C573   1.358       .  A
C573       C3013   1.490       .  S
C573        N574   1.360       .  A
N574        C575   1.360       .  A
C575       C3054   1.492       .  S
C575        N576   1.358       .  A
C577       C2990   1.485       .  S
C577        N578   1.359       .  A
C577        N582   1.360       .  A
N578        C579   1.358       .  A
C579       C5006   1.495       .  S
C579        N580   1.360       .  A
N580        C581   1.359       .  A
C581       C3045   1.493       .  S
C581        N582   1.359       .  A
C583       C2917   1.489       .  S
C583        N584   1.360       .  A
C583        N588   1.361       .  A
N584        C585   1.361       .  A
C585       C2885   1.492       .  S
C585        N586   1.361       .  A
N586        C587   1.358       .  A
C587       C2949   1.497       .  S
C587        N588   1.359       .  A
C589       C4302   1.486       .  S
C589        N590   1.362       .  A
C589        N594   1.359       .  A
N590        C591   1.363       .  A
C591       C2853   1.493       .  S
C591        N592   1.359       .  A
N592        C593   1.360       .  A
C593       C2958   1.501       .  S
C593        N594   1.359       .  A
Zr595       O596   2.440       .  S
Zr595       O597   2.461       .  S
Zr595       O598   2.468       .  S
Zr595       O601   2.459       .  S
Zr595       O603   2.384       .  S
Zr595       O604   2.386       .  S
Zr595       O605   2.417       .  S
Zr595       O606   2.409       .  S
O596        H652   0.990       .  S
O596        H660   0.989       .  S
O597        C617   1.286       .  A
O598        C619   1.289       .  A
O599       Zr609   2.433       .  S
O599        C618   1.284       .  A
O600       Zr608   2.427       .  S
O600        C619   1.284       .  A
O601        C618   1.288       .  A
O602       Zr610   2.402       .  S
O602        C617   1.277       .  A
O603       Zr608   2.397       .  S
O603       Zr610   2.381       .  S
O604       Zr609   2.399       .  S
O604       Zr610   2.379       .  S
O604        H639   0.965       .  S
O605       Zr608   2.400       .  S
O605       Zr625   2.395       .  S
O605        H642   0.963       .  S
O606       Zr609   2.389       .  S
O606       Zr625   2.394       .  S
Zr607       O632   2.438       .  S
Zr607       O626   2.456       .  S
Zr607       O634   2.449       .  S
Zr607       O622   2.469       .  S
Zr607       O613   2.409       .  S
Zr607       O614   2.413       .  S
Zr607       O615   2.380       .  S
Zr607       O616   2.391       .  S
Zr608       O627   2.435       .  S
Zr608       O620   2.435       .  S
Zr608       O621   2.431       .  S
Zr608       O614   2.401       .  S
Zr608       O615   2.391       .  S
Zr609       O611   2.436       .  S
Zr609       O633   2.438       .  S
Zr609       O635   2.429       .  S
Zr609       O613   2.390       .  S
Zr609       O616   2.402       .  S
Zr610       O636   2.435       .  S
Zr610       O637   2.436       .  S
Zr610       O612   2.437       .  S
Zr610       O613   2.389       .  S
Zr610       O614   2.380       .  S
O611        H648   0.990       .  S
O612        H643   0.990       .  S
O612        H657   0.990       .  S
O614        H640   0.964       .  S
O615       Zr625   2.381       .  S
O616       Zr625   2.380       .  S
O616        H641   0.966       .  S
C617       C3342   1.475       .  S
C618       C2926   1.485       .  S
C619       C2821   1.488       .  S
O620        H656   0.990       .  S
O621        C623   1.286       .  A
O622        C623   1.290       .  A
C623       C2789   1.497       .  S
O624       Zr625   2.439       .  S
O624        H653   0.990       .  S
Zr625       O628   2.437       .  S
Zr625       O629   2.440       .  S
Zr625       O630   2.420       .  S
O626        C631   1.287       .  A
O627        H644   0.990       .  S
O627        H659   0.990       .  S
O628        H645   0.990       .  S
O629        H649   0.990       .  S
O629        H658   0.990       .  S
O630        C631   1.281       .  A
C631       C2981   1.478       .  S
O632        H651   0.990       .  S
O632        H655   0.989       .  S
O633        H647   0.990       .  S
O633        H654   0.989       .  S
O634        C638   1.288       .  A
O635        C638   1.283       .  A
O636        H646   0.990       .  S
O637        H650   0.990       .  S
C638       C2766   1.495       .  S
Zr661       O662   2.440   1_545  S
Zr661       O663   2.425       .  S
Zr661       O664   2.450       .  S
Zr661       O667   2.437   1_545  S
Zr661       O669   2.384       .  S
Zr661       O670   2.383   1_545  S
Zr661       O671   2.406       .  S
Zr661       O672   2.401   1_545  S
O662        H718   0.990   1_565  S
O662        H726   0.990       .  S
O663        C683   1.282       .  A
O664        C685   1.286       .  A
O665       Zr675   2.431   1_554  S
O665        C684   1.284       .  A
O666       Zr674   2.428       .  S
O666        C685   1.284       .  A
O667        C684   1.285       .  A
O668       Zr676   2.420   1_554  S
O668        C683   1.282       .  A
O669       Zr674   2.398       .  S
O669       Zr676   2.380   1_554  S
O670       Zr675   2.390   1_554  S
O670       Zr676   2.374   1_564  S
O670        H705   0.966       .  S
O671       Zr674   2.403       .  S
O671       Zr691   2.392   1_545  S
O671        H708   0.966       .  S
O672       Zr675   2.392   1_554  S
O672       Zr691   2.392       .  S
Zr673       O698   2.440       .  S
Zr673       O692   2.437   1_545  S
Zr673       O700   2.430   1_545  S
Zr673       O688   2.418       .  S
Zr673       O679   2.396   1_545  S
Zr673       O680   2.403       .  S
Zr673       O681   2.377       .  S
Zr673       O682   2.381   1_545  S
Zr674       O693   2.437       .  S
Zr674       O686   2.435       .  S
Zr674       O687   2.442   1_554  S
Zr674       O680   2.390   1_554  S
Zr674       O681   2.389   1_554  S
Zr675       O677   2.434       .  S
Zr675       O699   2.438       .  S
Zr675       O701   2.431       .  S
Zr675       O679   2.390       .  S
Zr675       O682   2.392       .  S
Zr676       O702   2.435       .  S
Zr676       O703   2.435       .  S
Zr676       O678   2.436       .  S
Zr676       O679   2.391   1_545  S
Zr676       O680   2.394       .  S
O677        H714   0.990       .  S
O678        H709   0.990       .  S
O678        H723   0.990       .  S
O680        H706   0.966       .  S
O681       Zr691   2.373   1_546  S
O682       Zr691   2.382   1_556  S
O682        H707   0.966       .  S
C683       C3022   1.470       .  S
C684       C4174   1.474       .  S
C685       C2629   1.485       .  S
O686        H722   0.990       .  S
O687        C689   1.288       .  A
O688        C689   1.280       .  A
C689       C2734   1.484       .  S
O690       Zr691   2.435       .  S
O690        H719   0.990       .  S
Zr691       O694   2.435       .  S
Zr691       O695   2.438       .  S
Zr691       O696   2.423   1_554  S
O692        C697   1.285       .  A
O693        H710   0.990       .  S
O693        H725   0.990       .  S
O694        H711   0.990   1_565  S
O695        H715   0.990       .  S
O695        H724   0.989       .  S
O696        C697   1.282       .  A
C697       C2670   1.484       .  S
O698        H717   0.989       .  S
O698        H721   0.990       .  S
O699        H713   0.990       .  S
O699        H720   0.990   1_556  S
O700        C704   1.283       .  A
O701        C704   1.285       .  A
O702        H712   0.990   1_545  S
O703        H716   0.990       .  S
C704       C2693   1.486       .  S
C727       C4686   1.476       .  S
C727        N728   1.354       .  A
C727        N732   1.359       .  A
N728        C729   1.353       .  A
C729       C2606   1.490       .  S
C729        N730   1.360       .  A
N730        C731   1.364       .  A
C731       C4366   1.508       .  S
C731        N732   1.361       .  A
C733       C2565   1.499       .  S
C733        N734   1.364       .  A
C733        N738   1.364       .  A
N734        C735   1.362       .  A
C735       C2533   1.481       .  S
C735        N736   1.355       .  A
N736        C737   1.356       .  A
C737       C2597   1.489       .  S
C737        N738   1.359       .  A
C739       C4590   1.488       .  S
C739        N740   1.360       .  A
C739        N744   1.364       .  A
N740        C741   1.357       .  A
C741       C2501   1.477       .  S
C741        N742   1.355       .  A
N742        C743   1.358       .  A
C743       C2638   1.493       .  S
C743        N744   1.363       .  A
C745       C2469   1.488       .  S
C745        N746   1.364       .  A
C745        N750   1.361       .  A
N746        C747   1.364       .  A
C747       C3502   1.489       .  S
C747        N748   1.356       .  A
N748        C749   1.354       .  A
C749       C2510   1.473       .  S
C749        N750   1.357       .  A
C751       C3886   1.494       .  S
C751        N752   1.364       .  A
C751        N756   1.362       .  A
N752        C753   1.364       .  A
C753       C4270   1.501       .  S
C753        N754   1.357       .  A
N754        C755   1.357       .  A
C755       C2446   1.491       .  S
C755        N756   1.357       .  A
C757       C2405   1.480       .  S
C757        N758   1.362       .  A
C757        N762   1.361       .  A
N758        C759   1.360       .  A
C759       C2437   1.492       .  S
C759        N760   1.360       .  A
N760        C761   1.359       .  A
C761       C2373   1.480       .  S
C761        N762   1.360       .  A
C763       C5102   1.482       .  S
C763        N764   1.359       .  A
C763        N768   1.364       .  A
N764        C765   1.355       .  A
C765       C2350   1.473       .  S
C765        N766   1.354       .  A
N766        C767   1.356       .  A
C767       C2309   1.497       .  S
C767        N768   1.365       .  A
C769       C2661   1.465       .  S
C769        N770   1.355       .  A
C769        N774   1.357       .  A
N770        C771   1.356       .  A
C771       C2277   1.467       .  S
C771        N772   1.355       .  A
N772        C773   1.354       .  A
C773       C2341   1.467       .  S
C773        N774   1.356       .  A
Zr775       O776   2.441       .  S
Zr775       O777   2.455       .  S
Zr775       O778   2.468       .  S
Zr775       O781   2.440       .  S
Zr775       O783   2.382       .  S
Zr775       O784   2.386       .  S
Zr775       O785   2.410       .  S
Zr775       O786   2.404       .  S
O776        H832   0.990       .  S
O776        H840   0.990       .  S
O777        C797   1.286       .  A
O778        C799   1.288       .  A
O779       Zr789   2.430       .  S
O779        C798   1.283       .  A
O780       Zr788   2.427       .  S
O780        C799   1.282       .  A
O781        C798   1.286       .  A
O782       Zr790   2.419       .  S
O782        C797   1.281       .  A
O783       Zr788   2.400       .  S
O783       Zr790   2.385       .  S
O784       Zr789   2.396       .  S
O784       Zr790   2.375       .  S
O784        H819   0.965       .  S
O785       Zr788   2.392       .  S
O785       Zr805   2.393       .  S
O785        H822   0.963       .  S
O786       Zr789   2.384       .  S
O786       Zr805   2.384       .  S
Zr787       O812   2.440       .  S
Zr787       O806   2.465       .  S
Zr787       O814   2.460       .  S
Zr787       O802   2.483       .  S
Zr787       O793   2.409       .  S
Zr787       O794   2.416       .  S
Zr787       O795   2.381       .  S
Zr787       O796   2.393       .  S
Zr788       O807   2.435       .  S
Zr788       O800   2.436       .  S
Zr788       O801   2.411       .  S
Zr788       O794   2.403       .  S
Zr788       O795   2.396       .  S
Zr789       O791   2.436       .  S
Zr789       O813   2.439       .  S
Zr789       O815   2.427       .  S
Zr789       O793   2.389       .  S
Zr789       O796   2.400       .  S
Zr790       O816   2.436       .  S
Zr790       O817   2.436       .  S
Zr790       O792   2.435       .  S
Zr790       O793   2.391       .  S
Zr790       O794   2.391       .  S
O791        H828   0.990       .  S
O792        H823   0.990       .  S
O792        H837   0.990       .  S
O794        H820   0.965       .  S
O795       Zr805   2.383       .  S
O796       Zr805   2.381       .  S
O796        H821   0.966       .  S
C797       C2478   1.481       .  S
C798       C4421   1.482       .  S
C799       C2414   1.483       .  S
O800        H836   0.990       .  S
O801        C803   1.282       .  A
O802        C803   1.292       .  A
C803       C2318   1.490       .  S
O804       Zr805   2.439       .  S
O804        H833   0.990       .  S
Zr805       O808   2.437       .  S
Zr805       O809   2.439       .  S
Zr805       O810   2.415       .  S
O806        C811   1.288       .  A
O807        H824   0.990       .  S
O807        H839   0.990       .  S
O808        H825   0.990       .  S
O809        H829   0.989       .  S
O809        H838   0.991       .  S
O810        C811   1.280       .  A
C811       C2574   1.481       .  S
O812        H831   0.990       .  S
O812        H835   0.989       .  S
O813        H827   0.989       .  S
O813        H834   0.989       .  S
O814        C818   1.291       .  A
O815        C818   1.282       .  A
O816        H826   0.990       .  S
O817        H830   0.990       .  S
C818       C4142   1.505       .  S
C841       C3918   1.485       .  S
C841        N842   1.358       .  A
C841        N846   1.359       .  A
N842        C843   1.359       .  A
C843       C3086   1.476       .  S
C843        N844   1.359       .  A
N844        C845   1.360       .  A
C845       C2245   1.498       .  S
C845        N846   1.357       .  A
C847       C3749   1.490       .  S
C847        N848   1.361       .  A
C847        N852   1.365       .  A
N848        C849   1.360       .  A
C849       C2254   1.485       .  S
C849        N850   1.354       .  A
N850        C851   1.358       .  A
C851       C2213   1.498       .  S
C851        N852   1.362       .  A
Zr853       O854   2.441       .  S
Zr853       O855   2.454   1_556  S
Zr853       O856   2.478       .  S
Zr853       O859   2.442       .  S
Zr853       O861   2.385   1_556  S
Zr853       O862   2.389   1_556  S
Zr853       O863   2.409       .  S
Zr853       O864   2.413       .  S
O854        H910   0.990       .  S
O854        H918   0.991       .  S
O855        C875   1.287       .  A
O856        C877   1.291       .  A
O857       Zr867   2.427       .  S
O857        C876   1.284       .  A
O858       Zr866   2.416       .  S
O858        C877   1.281   1_554  A
O859        C876   1.286       .  A
O860       Zr868   2.414       .  S
O860        C875   1.280       .  A
O861       Zr866   2.400       .  S
O861       Zr868   2.388       .  S
O862       Zr867   2.384   1_554  S
O862       Zr868   2.372       .  S
O862        H897   0.966       .  S
O863       Zr866   2.397   1_556  S
O863       Zr883   2.384       .  S
O863        H900   0.964       .  S
O864       Zr867   2.392       .  S
O864       Zr883   2.391       .  S
Zr865       O890   2.441       .  S
Zr865       O884   2.473   1_554  S
Zr865       O892   2.458       .  S
Zr865       O880   2.462       .  S
Zr865       O871   2.417       .  S
Zr865       O872   2.415       .  S
Zr865       O873   2.382   1_554  S
Zr865       O874   2.387   1_554  S
Zr866       O885   2.436       .  S
Zr866       O878   2.434       .  S
Zr866       O879   2.422       .  S
Zr866       O872   2.395       .  S
Zr866       O873   2.395   1_554  S
Zr867       O869   2.435       .  S
Zr867       O891   2.437   1_556  S
Zr867       O893   2.421   1_556  S
Zr867       O871   2.395   1_556  S
Zr867       O874   2.394       .  S
Zr868       O894   2.437       .  S
Zr868       O895   2.436       .  S
Zr868       O870   2.437       .  S
Zr868       O871   2.397       .  S
Zr868       O872   2.388       .  S
O869        H906   0.990       .  S
O870        H901   0.991       .  S
O870        H915   0.990       .  S
O872        H898   0.965       .  S
O873       Zr883   2.386       .  S
O874       Zr883   2.379       .  S
O874        H899   0.966       .  S
C875       C4101   1.483       .  S
C876       C3214   1.475       .  S
C877       C2117   1.484       .  S
O878        H914   0.990       .  S
O879        C881   1.282       .  A
O880        C881   1.290       .  A
C881       C2222   1.488       .  S
O882       Zr883   2.440       .  S
O882        H911   0.990       .  S
Zr883       O886   2.436       .  S
Zr883       O887   2.442       .  S
Zr883       O888   2.406       .  S
O884        C889   1.290       .  A
O885        H902   0.990       .  S
O885        H917   0.990   1_554  S
O886        H903   0.990       .  S
O887        H907   0.990       .  S
O887        H916   0.989       .  S
O888        C889   1.279       .  A
C889       C2181   1.496       .  S
O890        H909   0.990       .  S
O890        H913   0.990       .  S
O891        H905   0.990       .  S
O891        H912   0.990   1_554  S
O892        C896   1.287       .  A
O893        C896   1.282       .  A
O894        H904   0.990       .  S
O895        H908   0.991       .  S
C896       C2149   1.479       .  S
Zr919       O920   2.436       .  S
Zr919       O921   2.438   1_545  S
Zr919       O922   2.450   1_655  S
Zr919       O925   2.442       .  S
Zr919       O927   2.379   1_645  S
Zr919       O928   2.386   1_545  S
Zr919       O929   2.402   1_655  S
Zr919       O930   2.403       .  S
O920        H976   0.990       .  S
O920        H984   0.990   1_655  S
O921        C941   1.285       .  A
O922        C943   1.286       .  A
O923       Zr933   2.433       .  S
O923        C942   1.286       .  A
O924       Zr932   2.416       .  S
O924        C943   1.282       .  A
O925        C942   1.287       .  A
O926       Zr934   2.421   1_655  S
O926        C941   1.281       .  A
O927       Zr932   2.389   1_565  S
O927       Zr934   2.373       .  S
O928       Zr933   2.381   1_565  S
O928       Zr934   2.373   1_655  S
O928        H963   0.966       .  S
O929       Zr932   2.394       .  S
O929       Zr949   2.392       .  S
O929        H966   0.966       .  S
O930       Zr933   2.386       .  S
O930       Zr949   2.385   1_655  S
Zr931       O956   2.441   1_545  S
Zr931       O950   2.457       .  S
Zr931       O958   2.440   1_445  S
Zr931       O946   2.461   1_545  S
Zr931       O937   2.411   1_445  S
Zr931       O938   2.415   1_545  S
Zr931       O939   2.378       .  S
Zr931       O940   2.391   1_455  S
Zr932       O951   2.436       .  S
Zr932       O944   2.434   1_545  S
Zr932       O945   2.426   1_545  S
Zr932       O938   2.399   1_545  S
Zr932       O939   2.393       .  S
Zr933       O935   2.435       .  S
Zr933       O957   2.438   1_545  S
Zr933       O959   2.418       .  S
Zr933       O937   2.391   1_545  S
Zr933       O940   2.401       .  S
Zr934       O960   2.436   1_455  S
Zr934       O961   2.436       .  S
Zr934       O936   2.438       .  S
Zr934       O937   2.395   1_455  S
Zr934       O938   2.392       .  S
O935        H972   0.991       .  S
O936        H967   0.990       .  S
O936        H981   0.990       .  S
O938        H964   0.964       .  S
O939       Zr949   2.383       .  S
O940       Zr949   2.379   1_655  S
O940        H965   0.966       .  S
C941       C2382   1.472       .  S
C942       C4782   1.488       .  S
C943       C4014   1.485       .  S
O944        H980   0.990       .  S
O945        C947   1.282       .  A
O946        C947   1.288       .  A
C947       C2062   1.491       .  S
O948       Zr949   2.438       .  S
O948        H977   0.990       .  S
Zr949       O952   2.436       .  S
Zr949       O953   2.440   1_455  S
Zr949       O954   2.408       .  S
O950        C955   1.286       .  A
O951        H968   0.990       .  S
O951        H983   0.990       .  S
O952        H969   0.990       .  S
O953        H973   0.990       .  S
O953        H982   0.990       .  S
O954        C955   1.278       .  A
C955       C2021   1.477       .  S
O956        H975   0.990       .  S
O956        H979   0.990       .  S
O957        H971   0.990       .  S
O957        H978   0.990       .  S
O958        C962   1.285       .  A
O959        C962   1.281   1_545  A
O960        H970   0.990       .  S
O961        H974   0.990       .  S
C962       C2094   1.471       .  S
C985       C3429   1.495       .  S
C985        N986   1.359       .  A
C985        N990   1.361       .  A
N986        C987   1.359       .  A
C987       C3950   1.471       .  S
C987        N988   1.357       .  A
N988        C989   1.356       .  A
C989       C1989   1.487       .  S
C989        N990   1.359       .  A
C991       C2053   1.479       .  S
C991        N992   1.359       .  A
C991        N996   1.361       .  A
N992        C993   1.356       .  A
C993       C1998   1.479       .  S
C993        N994   1.353       .  A
N994        C995   1.357       .  A
C995       C1957   1.488       .  S
C995        N996   1.361       .  A
C997       C2190   1.482       .  S
C997        N998   1.357       .  A
C997       N1002   1.364       .  A
N998        C999   1.356       .  A
C999       C1934   1.483       .  S
C999       N1000   1.358       .  A
N1000      C1001   1.360       .  A
C1001      C2830   1.499       .  S
C1001      N1002   1.366       .  A
C1003      C1902   1.487       .  S
C1003      N1004   1.360       .  A
C1003      N1008   1.358       .  A
N1004      C1005   1.357       .  A
C1005      C1925   1.483       .  S
C1005      N1006   1.355       .  A
N1006      C1007   1.357       .  A
C1007      C2725   1.470       .  S
C1007      N1008   1.358       .  A
C1009      C2030   1.487       .  S
C1009      N1010   1.362       .  A
C1009      N1014   1.358       .  A
N1010      C1011   1.361       .  A
C1011      C2757   1.491       .  S
C1011      N1012   1.359       .  A
N1012      C1013   1.355       .  A
C1013      C1870   1.491       .  S
C1013      N1014   1.358       .  A
C1015      C4398   1.484       .  S
C1015      N1016   1.357       .  A
C1015      N1020   1.359       .  A
N1016      C1017   1.355       .  A
C1017      C1861   1.482       .  S
C1017      N1018   1.358       .  A
N1018      C1019   1.359       .  A
C1019      C1829   1.482       .  S
C1019      N1020   1.360       .  A
C1021      C4622   1.504       .  S
C1021      N1022   1.358       .  A
C1021      N1026   1.365       .  A
N1022      C1023   1.356       .  A
C1023      C1797   1.477       .  S
C1023      N1024   1.357       .  A
N1024      C1025   1.360       .  A
C1025      C2158   1.487       .  S
C1025      N1026   1.362       .  A
C1027      C1733   1.484       .  S
C1027      N1028   1.357       .  A
C1027      N1032   1.359       .  A
N1028      C1029   1.356       .  A
C1029      C1806   1.483       .  S
C1029      N1030   1.360       .  A
N1030      C1031   1.362       .  A
C1031      C1765   1.493       .  S
C1031      N1032   1.361       .  A
Zr1033     O1034   2.442       .  S
Zr1033     O1035   2.438       .  S
Zr1033     O1036   2.432       .  S
Zr1033     O1039   2.442       .  S
Zr1033     O1041   2.385       .  S
Zr1033     O1042   2.384       .  S
Zr1033     O1043   2.408       .  S
Zr1033     O1044   2.393       .  S
O1034      H1090   0.990       .  S
O1034      H1098   0.991       .  S
O1035      C1055   1.283       .  A
O1036      C1057   1.284       .  A
O1037     Zr1047   2.427       .  S
O1037      C1056   1.282       .  A
O1038     Zr1046   2.432       .  S
O1038      C1057   1.283       .  A
O1039      C1056   1.288       .  A
O1040     Zr1048   2.425       .  S
O1040      C1055   1.282       .  A
O1041     Zr1046   2.394       .  S
O1041     Zr1048   2.372       .  S
O1042     Zr1047   2.390       .  S
O1042     Zr1048   2.379       .  S
O1042      H1077   0.966       .  S
O1043     Zr1046   2.398       .  S
O1043     Zr1063   2.392       .  S
O1043      H1080   0.966       .  S
O1044     Zr1047   2.383       .  S
O1044     Zr1063   2.382       .  S
Zr1045     O1070   2.438       .  S
Zr1045     O1064   2.451       .  S
Zr1045     O1072   2.464       .  S
Zr1045     O1060   2.449       .  S
Zr1045     O1051   2.405       .  S
Zr1045     O1052   2.413       .  S
Zr1045     O1053   2.385       .  S
Zr1045     O1054   2.381       .  S
Zr1046     O1065   2.437       .  S
Zr1046     O1058   2.434       .  S
Zr1046     O1059   2.424       .  S
Zr1046     O1052   2.403       .  S
Zr1046     O1053   2.392       .  S
Zr1047     O1049   2.434       .  S
Zr1047     O1071   2.436       .  S
Zr1047     O1073   2.413       .  S
Zr1047     O1051   2.392       .  S
Zr1047     O1054   2.386       .  S
Zr1048     O1074   2.436       .  S
Zr1048     O1075   2.435       .  S
Zr1048     O1050   2.439       .  S
Zr1048     O1051   2.396       .  S
Zr1048     O1052   2.401       .  S
O1049      H1086   0.990       .  S
O1050      H1081   0.990       .  S
O1050      H1095   0.990       .  S
O1052      H1078   0.966       .  S
O1053     Zr1063   2.376       .  S
O1054     Zr1063   2.382       .  S
O1054      H1079   0.966       .  S
C1055      C4718   1.474       .  S
C1056      C1701   1.505       .  S
C1057      C1893   1.483       .  S
O1058      H1094   0.989       .  S
O1059      C1061   1.282       .  A
O1060      C1061   1.286       .  A
C1061      C3118   1.490       .  S
O1062     Zr1063   2.439       .  S
O1062      H1091   0.990       .  S
Zr1063     O1066   2.438       .  S
Zr1063     O1067   2.439       .  S
Zr1063     O1068   2.398       .  S
O1064      C1069   1.286       .  A
O1065      H1082   0.990       .  S
O1065      H1097   0.990       .  S
O1066      H1083   0.990       .  S
O1067      H1087   0.990       .  S
O1067      H1096   0.990       .  S
O1068      C1069   1.278       .  A
C1069      C1774   1.469       .  S
O1070      H1089   0.990       .  S
O1070      H1093   0.991       .  S
O1071      H1085   0.990       .  S
O1071      H1092   0.990       .  S
O1072      C1076   1.290       .  A
O1073      C1076   1.282       .  A
O1074      H1084   0.990       .  S
O1075      H1088   0.990       .  S
C1076      C1838   1.490       .  S
C1099      C1646   1.478       .  S
C1099      N1100   1.363       .  A
C1099      N1104   1.353       .  A
N1100      C1101   1.364       .  A
C1101      C5157   1.485       .  S
C1101      N1102   1.364       .  A
N1102      C1103   1.360       .  A
C1103      C1678   1.474       .  S
C1103      N1104   1.352       .  A
C1105      C1573   1.484       .  S
C1105      N1106   1.362       .  A
C1105      N1110   1.356       .  A
N1106      C1107   1.363       .  A
C1107      C1669   1.493       .  S
C1107      N1108   1.359       .  A
N1108      C1109   1.357       .  A
C1109      C1605   1.481       .  S
C1109      N1110   1.355       .  A
C1111      C1710   1.488       .  S
C1111      N1112   1.361       .  A
C1111      N1116   1.357       .  A
N1112      C1113   1.362       .  A
C1113      C5134   1.473       .  S
C1113      N1114   1.359       .  A
N1114      C1115   1.356       .  A
C1115      C1550   1.478       .  S
C1115      N1116   1.353       .  A
C1117      C2085   1.479       .  S
C1117      N1118   1.355       .  A
C1117      N1122   1.361       .  A
N1118      C1119   1.352       .  A
C1119      C1541   1.489       .  S
C1119      N1120   1.360       .  A
N1120      C1121   1.362       .  A
C1121      C1509   1.493       .  S
C1121      N1122   1.364       .  A
Zr1123     O1124   2.442       .  S
Zr1123     O1125   2.440       .  S
Zr1123     O1126   2.446       .  S
Zr1123     O1129   2.427       .  S
Zr1123     O1131   2.379       .  S
Zr1123     O1132   2.385       .  S
Zr1123     O1133   2.407       .  S
Zr1123     O1134   2.406       .  S
O1124      H1180   0.991       .  S
O1124      H1188   0.990       .  S
O1125      C1145   1.284       .  A
O1126      C1147   1.285       .  A
O1127     Zr1137   2.417       .  S
O1127      C1146   1.283       .  A
O1128     Zr1136   2.421       .  S
O1128      C1147   1.280       .  A
O1129      C1146   1.282       .  A
O1130     Zr1138   2.414       .  S
O1130      C1145   1.280       .  A
O1131     Zr1136   2.393       .  S
O1131     Zr1138   2.382       .  S
O1132     Zr1137   2.395       .  S
O1132     Zr1138   2.372       .  S
O1132      H1167   0.966       .  S
O1133     Zr1136   2.396       .  S
O1133     Zr1153   2.387       .  S
O1133      H1170   0.965       .  S
O1134     Zr1137   2.388       .  S
O1134     Zr1153   2.391       .  S
Zr1135     O1160   2.443       .  S
Zr1135     O1154   2.461       .  S
Zr1135     O1162   2.456       .  S
Zr1135     O1150   2.448       .  S
Zr1135     O1141   2.408       .  S
Zr1135     O1142   2.414       .  S
Zr1135     O1143   2.385       .  S
Zr1135     O1144   2.388       .  S
Zr1136     O1155   2.437       .  S
Zr1136     O1148   2.435       .  S
Zr1136     O1149   2.414       .  S
Zr1136     O1142   2.392       .  S
Zr1136     O1143   2.396       .  S
Zr1137     O1139   2.435       .  S
Zr1137     O1161   2.439       .  S
Zr1137     O1163   2.418       .  S
Zr1137     O1141   2.390       .  S
Zr1137     O1144   2.396       .  S
Zr1138     O1164   2.434       .  S
Zr1138     O1165   2.437       .  S
Zr1138     O1140   2.436       .  S
Zr1138     O1141   2.390       .  S
Zr1138     O1142   2.380       .  S
O1139      H1176   0.990       .  S
O1140      H1171   0.990       .  S
O1140      H1185   0.990       .  S
O1142      H1168   0.961       .  S
O1143     Zr1153   2.383       .  S
O1144     Zr1153   2.382       .  S
O1144      H1169   0.966       .  S
C1145      C1518   1.473       .  S
C1146      C4494   1.477       .  S
C1147      C3630   1.481       .  S
O1148      H1184   0.990       .  S
O1149      C1151   1.282       .  A
O1150      C1151   1.286       .  A
C1151      C2286   1.472       .  S
O1152     Zr1153   2.439       .  S
O1152      H1181   0.991       .  S
Zr1153     O1156   2.435       .  S
Zr1153     O1157   2.439       .  S
Zr1153     O1158   2.407       .  S
O1154      C1159   1.288       .  A
O1155      H1172   0.991       .  S
O1155      H1187   0.990       .  S
O1156      H1173   0.989       .  S
O1157      H1177   0.990       .  S
O1157      H1186   0.990       .  S
O1158      C1159   1.276       .  A
C1159      C3182   1.499       .  S
O1160      H1179   0.990       .  S
O1160      H1183   0.991       .  S
O1161      H1175   0.990       .  S
O1161      H1182   0.990       .  S
O1162      C1166   1.287       .  A
O1163      C1166   1.280       .  A
O1164      H1174   0.990       .  S
O1165      H1178   0.990       .  S
C1166      C1614   1.481       .  S
Zr1189     O1190   2.442       .  S
Zr1189     O1191   2.451       .  S
Zr1189     O1192   2.448   1_455  S
Zr1189     O1195   2.434       .  S
Zr1189     O1197   2.379   1_455  S
Zr1189     O1198   2.388       .  S
Zr1189     O1199   2.411   1_455  S
Zr1189     O1200   2.407       .  S
O1190      H1246   0.990       .  S
O1190      H1254   0.991       .  S
O1191      C1211   1.285       .  A
O1192      C1213   1.286       .  A
O1193     Zr1203   2.424   1_554  S
O1193      C1212   1.282       .  A
O1194     Zr1202   2.449       .  S
O1194      C1213   1.286       .  A
O1195      C1212   1.285       .  A
O1196     Zr1204   2.399       .  S
O1196      C1211   1.279       .  A
O1197     Zr1202   2.395       .  S
O1197     Zr1204   2.386   1_655  S
O1198     Zr1203   2.394   1_554  S
O1198     Zr1204   2.374       .  S
O1198      H1233   0.966       .  S
O1199     Zr1202   2.397       .  S
O1199     Zr1219   2.380   1_554  S
O1199      H1236   0.964       .  S
O1200     Zr1203   2.388   1_554  S
O1200     Zr1219   2.391   1_454  S
Zr1201     O1226   2.441       .  S
Zr1201     O1220   2.435       .  S
Zr1201     O1228   2.445   1_655  S
Zr1201     O1216   2.450       .  S
Zr1201     O1207   2.399   1_655  S
Zr1201     O1208   2.405       .  S
Zr1201     O1209   2.389       .  S
Zr1201     O1210   2.386   1_655  S
Zr1202     O1221   2.436       .  S
Zr1202     O1214   2.435       .  S
Zr1202     O1215   2.427   1_554  S
Zr1202     O1208   2.407   1_554  S
Zr1202     O1209   2.399   1_554  S
Zr1203     O1205   2.435       .  S
Zr1203     O1227   2.436       .  S
Zr1203     O1229   2.429       .  S
Zr1203     O1207   2.389       .  S
Zr1203     O1210   2.385       .  S
Zr1204     O1230   2.437   1_554  S
Zr1204     O1231   2.435   1_554  S
Zr1204     O1206   2.436   1_455  S
Zr1204     O1207   2.382   1_554  S
Zr1204     O1208   2.386   1_454  S
O1205      H1242   0.990       .  S
O1206      H1237   0.990       .  S
O1206      H1251   0.990       .  S
O1208      H1234   0.965       .  S
O1209     Zr1219   2.379       .  S
O1210     Zr1219   2.373   1_455  S
O1210      H1235   0.966       .  S
C1211      C4901   1.492       .  S
C1212      C1486   1.486       .  S
C1213      C2542   1.486       .  S
O1214      H1250   0.990       .  S
O1215      C1217   1.283       .  A
O1216      C1217   1.286       .  A
C1217      C1742   1.479       .  S
O1218     Zr1219   2.439   1_554  S
O1218      H1247   0.990       .  S
Zr1219     O1222   2.437       .  S
Zr1219     O1223   2.440   1_655  S
Zr1219     O1224   2.406       .  S
O1220      C1225   1.283       .  A
O1221      H1238   0.991       .  S
O1221      H1253   0.990       .  S
O1222      H1239   0.991       .  S
O1223      H1243   0.990       .  S
O1223      H1252   0.990       .  S
O1224      C1225   1.278       .  A
C1225      C1582   1.462       .  S
O1226      H1245   0.991       .  S
O1226      H1249   0.990       .  S
O1227      H1241   0.990       .  S
O1227      H1248   0.990       .  S
O1228      C1232   1.288       .  A
O1229      C1232   1.283       .  A
O1230      H1240   0.990   1_556  S
O1231      H1244   0.990       .  S
C1232      C2894   1.488       .  S
C1255      C2798   1.490       .  S
C1255      N1256   1.362       .  A
C1255      N1260   1.360       .  A
N1256      C1257   1.360       .  A
C1257      C3470   1.471       .  S
C1257      N1258   1.354       .  A
N1258      C1259   1.354       .  A
C1259      C1454   1.481       .  S
C1259      N1260   1.357       .  A
C1261      C2702   1.490       .  S
C1261      N1262   1.359       .  A
C1261      N1266   1.359       .  A
N1262      C1263   1.358       .  A
C1263      C1445   1.485       .  S
C1263      N1264   1.355       .  A
N1264      C1265   1.357       .  A
C1265      C1413   1.478       .  S
C1265      N1266   1.359       .  A
C1267      C1477   1.475       .  S
C1267      N1268   1.360       .  A
C1267      N1272   1.360       .  A
N1268      C1269   1.359       .  A
C1269      C3854   1.482       .  S
C1269      N1270   1.357       .  A
N1270      C1271   1.358       .  A
C1271      C1381   1.502       .  S
C1271      N1272   1.358       .  A
C1273      C2126   1.508       .  S
C1273      N1274   1.360       .  A
C1273      N1278   1.360       .  A
N1274      C1275   1.361       .  A
C1275      C1349   1.478       .  S
C1275      N1276   1.360       .  A
N1276      C1277   1.357       .  A
C1277      C1390   1.489       .  S
C1277      N1278   1.357       .  A
Zr1279     O1280   2.441       .  S
Zr1279     O1281   2.448       .  S
Zr1279     O1282   2.440       .  S
Zr1279     O1285   2.442       .  S
Zr1279     O1287   2.384       .  S
Zr1279     O1288   2.383       .  S
Zr1279     O1289   2.413       .  S
Zr1279     O1290   2.399       .  S
O1280      H1336   0.989       .  S
O1280      H1344   0.990       .  S
O1281      C1301   1.284       .  A
O1282      C1303   1.285       .  A
O1283     Zr1293   2.433       .  S
O1283      C1302   1.285       .  A
O1284     Zr1292   2.430       .  S
O1284      C1303   1.282       .  A
O1285      C1302   1.285       .  A
O1286     Zr1294   2.426       .  S
O1286      C1301   1.283       .  A
O1287     Zr1292   2.402       .  S
O1287     Zr1294   2.377       .  S
O1288     Zr1293   2.392       .  S
O1288     Zr1294   2.379       .  S
O1288      H1323   0.966       .  S
O1289     Zr1292   2.399       .  S
O1289     Zr1309   2.397       .  S
O1289      H1326   0.966       .  S
O1290     Zr1293   2.384       .  S
O1290     Zr1309   2.385       .  S
Zr1291     O1316   2.441       .  S
Zr1291     O1310   2.463       .  S
Zr1291     O1318   2.463       .  S
Zr1291     O1306   2.470       .  S
Zr1291     O1297   2.405       .  S
Zr1291     O1298   2.420       .  S
Zr1291     O1299   2.383       .  S
Zr1291     O1300   2.393       .  S
Zr1292     O1311   2.435       .  S
Zr1292     O1304   2.434       .  S
Zr1292     O1305   2.430       .  S
Zr1292     O1298   2.401       .  S
Zr1292     O1299   2.392       .  S
Zr1293     O1295   2.436       .  S
Zr1293     O1317   2.437       .  S
Zr1293     O1319   2.424       .  S
Zr1293     O1297   2.390       .  S
Zr1293     O1300   2.399       .  S
Zr1294     O1320   2.436       .  S
Zr1294     O1321   2.436       .  S
Zr1294     O1296   2.436       .  S
Zr1294     O1297   2.390       .  S
Zr1294     O1298   2.398       .  S
O1295      H1332   0.990       .  S
O1296      H1327   0.990       .  S
O1296      H1341   0.990       .  S
O1298      H1324   0.965       .  S
O1299     Zr1309   2.381       .  S
O1300     Zr1309   2.388       .  S
O1300      H1325   0.966       .  S
C1301      C1358   1.497       .  S
C1302      C1422   1.476       .  S
C1303      C1637   1.500       .  S
O1304      H1340   0.990       .  S
O1305      C1307   1.283       .  A
O1306      C1307   1.290       .  A
C1307      C2862   1.488       .  S
O1308     Zr1309   2.438       .  S
O1308      H1337   0.990       .  S
Zr1309     O1312   2.437       .  S
Zr1309     O1313   2.441       .  S
Zr1309     O1314   2.405       .  S
O1310      C1315   1.287       .  A
O1311      H1328   0.990       .  S
O1311      H1343   0.990       .  S
O1312      H1329   0.990       .  S
O1313      H1333   0.990       .  S
O1313      H1342   0.989       .  S
O1314      C1315   1.277       .  A
C1315      C1966   1.479       .  S
O1316      H1335   0.990       .  S
O1316      H1339   0.990       .  S
O1317      H1331   0.990       .  S
O1317      H1338   0.990       .  S
O1318      C1322   1.289       .  A
O1319      C1322   1.283       .  A
O1320      H1330   0.990       .  S
O1321      H1334   0.990       .  S
C1322      C3566   1.479       .  S
C1345      C1346   1.402       .  A
C1345      C1350   1.406       .  A
C1345      H1355   1.083       .  S
C1346      C1351   1.490       .  S
C1346      C1347   1.419       .  A
C1347      C1348   1.412       .  A
C1347      C1352   1.519       .  S
C1348      C1349   1.402       .  A
C1348      H1353   1.083       .  S
C1349      C1350   1.415       .  A
C1350      C1354   1.517       .  S
C1351      C1356   1.415       .  A
C1351      C1360   1.402       .  A
C1352      F1368   1.382       .  S
C1352      F1369   1.382       .  S
C1352      F1370   1.385       .  S
C1354      F1365   1.385       .  S
C1354      F1366   1.382       .  S
C1354      F1367   1.383       .  S
C1356      C1357   1.408       .  A
C1356      C1361   1.520       .  S
C1357      C1358   1.409       .  A
C1357      H1362   1.082       .  S
C1358      C1359   1.423       .  A
C1359      C1360   1.411       .  A
C1359      C1363   1.518       .  S
C1360      H1364   1.083       .  S
C1361      F1374   1.385       .  S
C1361      F1375   1.382       .  S
C1361      F1376   1.382       .  S
C1363      F1371   1.385       .  S
C1363      F1372   1.384       .  S
C1363      F1373   1.381       .  S
C1377      C1378   1.398       .  A
C1377      C1382   1.410       .  A
C1377      H1387   1.083   1_554  S
C1378      C1383   1.485       .  S
C1378      C1379   1.411       .  A
C1379      C1380   1.405       .  A
C1379      C1384   1.521       .  S
C1380      C1381   1.413       .  A
C1380      H1385   1.081       .  S
C1381      C1382   1.429       .  A
C1382      C1386   1.519       .  S
C1383      C1388   1.413   1_554  A
C1383      C1392   1.402   1_554  A
C1384      F1400   1.382       .  S
C1384      F1401   1.382       .  S
C1384      F1402   1.385       .  S
C1386      F1397   1.383       .  S
C1386      F1398   1.385   1_554  S
C1386      F1399   1.381       .  S
C1388      C1389   1.404       .  A
C1388      C1393   1.520   1_556  S
C1389      C1390   1.407       .  A
C1389      H1394   1.083       .  S
C1390      C1391   1.422       .  A
C1391      C1392   1.411       .  A
C1391      C1395   1.519       .  S
C1392      H1396   1.083       .  S
C1393      F1406   1.384   1_554  S
C1393      F1407   1.382   1_554  S
C1393      F1408   1.382       .  S
C1395      F1403   1.383       .  S
C1395      F1404   1.383       .  S
C1395      F1405   1.385       .  S
C1409      C1410   1.403       .  A
C1409      C1414   1.410       .  A
C1409      H1419   1.083       .  S
C1410      C1415   1.483       .  S
C1410      C1411   1.416       .  A
C1411      C1412   1.404       .  A
C1411      C1416   1.521       .  S
C1412      C1413   1.402       .  A
C1412      H1417   1.083       .  S
C1413      C1414   1.419       .  A
C1414      C1418   1.519       .  S
C1415      C1420   1.415       .  A
C1415      C1424   1.401       .  A
C1416      F1432   1.382       .  S
C1416      F1433   1.381       .  S
C1416      F1434   1.385       .  S
C1418      F1429   1.384       .  S
C1418      F1430   1.384       .  S
C1418      F1431   1.381       .  S
C1420      C1421   1.409       .  A
C1420      C1425   1.518       .  S
C1421      C1422   1.403       .  A
C1421      H1426   1.083       .  S
C1422      C1423   1.416       .  A
C1423      C1424   1.406       .  A
C1423      C1427   1.517       .  S
C1424      H1428   1.083       .  S
C1425      F1438   1.384       .  S
C1425      F1439   1.383       .  S
C1425      F1440   1.382       .  S
C1427      F1435   1.385       .  S
C1427      F1436   1.382       .  S
C1427      F1437   1.381       .  S
C1441      C1442   1.401       .  A
C1441      C1446   1.410       .  A
C1441      H1451   1.083       .  S
C1442      C1447   1.480   1_565  S
C1442      C1443   1.413       .  A
C1443      C1444   1.403       .  A
C1443      C1448   1.521   1_565  S
C1444      C1445   1.406       .  A
C1444      H1449   1.083       .  S
C1445      C1446   1.423       .  A
C1446      C1450   1.520       .  S
C1447      C1452   1.413       .  A
C1447      C1456   1.401       .  A
C1448      F1464   1.382       .  S
C1448      F1465   1.381       .  S
C1448      F1466   1.384       .  S
C1450      F1461   1.385       .  S
C1450      F1462   1.383       .  S
C1450      F1463   1.383       .  S
C1452      C1453   1.405       .  A
C1452      C1457   1.520       .  S
C1453      C1454   1.407       .  A
C1453      H1458   1.083       .  S
C1454      C1455   1.419       .  A
C1455      C1456   1.406       .  A
C1455      C1459   1.519       .  S
C1456      H1460   1.083       .  S
C1457      F1470   1.385       .  S
C1457      F1471   1.382   1_545  S
C1457      F1472   1.382       .  S
C1459      F1467   1.385       .  S
C1459      F1468   1.384       .  S
C1459      F1469   1.382       .  S
C1473      C1474   1.402       .  A
C1473      C1478   1.405       .  A
C1473      H1483   1.085       .  S
C1474      C1479   1.486       .  S
C1474      C1475   1.416       .  A
C1475      C1476   1.409       .  A
C1475      C1480   1.519       .  S
C1476      C1477   1.403       .  A
C1476      H1481   1.083       .  S
C1477      C1478   1.419       .  A
C1478      C1482   1.519       .  S
C1479      C1484   1.418       .  A
C1479      C1488   1.403       .  A
C1480      F1496   1.381       .  S
C1480      F1497   1.383       .  S
C1480      F1498   1.384       .  S
C1482      F1493   1.384       .  S
C1482      F1494   1.383       .  S
C1482      F1495   1.382       .  S
C1484      C1485   1.405       .  A
C1484      C1489   1.518       .  S
C1485      C1486   1.405       .  A
C1485      H1490   1.085       .  S
C1486      C1487   1.419       .  A
C1487      C1488   1.406       .  A
C1487      C1491   1.519       .  S
C1488      H1492   1.084       .  S
C1489      F1502   1.384       .  S
C1489      F1503   1.383       .  S
C1489      F1504   1.381       .  S
C1491      F1499   1.382   1_554  S
C1491      F1500   1.384       .  S
C1491      F1501   1.385       .  S
C1505      C1506   1.399       .  A
C1505      C1510   1.405       .  A
C1505      H1515   1.084       .  S
C1506      C1511   1.488       .  S
C1506      C1507   1.415       .  A
C1507      C1508   1.412       .  A
C1507      C1512   1.518       .  S
C1508      C1509   1.409       .  A
C1508      H1513   1.083       .  S
C1509      C1510   1.424       .  A
C1510      C1514   1.518       .  S
C1511      C1516   1.419       .  A
C1511      C1520   1.404       .  A
C1512      F1528   1.382       .  S
C1512      F1529   1.382       .  S
C1512      F1530   1.384       .  S
C1514      F1525   1.384       .  S
C1514      F1526   1.385       .  S
C1514      F1527   1.381       .  S
C1516      C1517   1.408       .  A
C1516      C1521   1.519       .  S
C1517      C1518   1.400       .  A
C1517      H1522   1.083       .  S
C1518      C1519   1.413       .  A
C1519      C1520   1.408       .  A
C1519      C1523   1.518       .  S
C1520      H1524   1.083       .  S
C1521      F1534   1.385       .  S
C1521      F1535   1.381       .  S
C1521      F1536   1.382       .  S
C1523      F1531   1.383       .  S
C1523      F1532   1.383       .  S
C1523      F1533   1.384       .  S
C1537      C1538   1.399   1_545  A
C1537      C1542   1.406   1_545  A
C1537      H1547   1.083       .  S
C1538      C1543   1.483   1_565  S
C1538      C1539   1.413       .  A
C1539      C1540   1.407       .  A
C1539      C1544   1.518       .  S
C1540      C1541   1.407       .  A
C1540      H1545   1.079       .  S
C1541      C1542   1.424       .  A
C1542      C1546   1.521   1_565  S
C1543      C1548   1.417       .  A
C1543      C1552   1.401       .  A
C1544      F1560   1.382       .  S
C1544      F1561   1.382       .  S
C1544      F1562   1.385       .  S
C1546      F1557   1.382   1_545  S
C1546      F1558   1.385       .  S
C1546      F1559   1.383   1_545  S
C1548      C1549   1.407       .  A
C1548      C1553   1.519       .  S
C1549      C1550   1.402       .  A
C1549      H1554   1.083       .  S
C1550      C1551   1.419       .  A
C1551      C1552   1.407       .  A
C1551      C1555   1.519       .  S
C1552      H1556   1.083       .  S
C1553      F1566   1.385       .  S
C1553      F1567   1.382       .  S
C1553      F1568   1.382   1_545  S
C1555      F1563   1.383       .  S
C1555      F1564   1.384       .  S
C1555      F1565   1.384       .  S
C1569      C1570   1.402       .  A
C1569      C1574   1.407       .  A
C1569      H1579   1.083       .  S
C1570      C1575   1.483       .  S
C1570      C1571   1.412       .  A
C1571      C1572   1.408       .  A
C1571      C1576   1.519       .  S
C1572      C1573   1.408       .  A
C1572      H1577   1.083       .  S
C1573      C1574   1.419       .  A
C1574      C1578   1.519       .  S
C1575      C1580   1.416       .  A
C1575      C1584   1.404       .  A
C1576      F1592   1.382       .  S
C1576      F1593   1.383       .  S
C1576      F1594   1.384       .  S
C1578      F1589   1.383       .  S
C1578      F1590   1.385       .  S
C1578      F1591   1.384       .  S
C1580      C1581   1.403       .  A
C1580      C1585   1.519   1_655  S
C1581      C1582   1.400       .  A
C1581      H1586   1.084   1_655  S
C1582      C1583   1.414       .  A
C1583      C1584   1.405       .  A
C1583      C1587   1.518       .  S
C1584      H1588   1.084       .  S
C1585      F1598   1.385       .  S
C1585      F1599   1.382       .  S
C1585      F1600   1.382       .  S
C1587      F1595   1.383       .  S
C1587      F1596   1.383       .  S
C1587      F1597   1.383       .  S
C1601      C1602   1.402       .  A
C1601      C1606   1.407       .  A
C1601      H1611   1.083       .  S
C1602      C1607   1.482       .  S
C1602      C1603   1.413       .  A
C1603      C1604   1.406       .  A
C1603      C1608   1.519       .  S
C1604      C1605   1.406       .  A
C1604      H1609   1.083       .  S
C1605      C1606   1.418       .  A
C1606      C1610   1.519       .  S
C1607      C1612   1.415       .  A
C1607      C1616   1.402       .  A
C1608      F1624   1.382       .  S
C1608      F1625   1.381       .  S
C1608      F1626   1.385       .  S
C1610      F1621   1.385       .  S
C1610      F1622   1.383       .  S
C1610      F1623   1.381       .  S
C1612      C1613   1.406       .  A
C1612      C1617   1.520       .  S
C1613      C1614   1.405       .  A
C1613      H1618   1.083       .  S
C1614      C1615   1.420       .  A
C1615      C1616   1.408       .  A
C1615      C1619   1.519       .  S
C1616      H1620   1.083       .  S
C1617      F1630   1.384       .  S
C1617      F1631   1.382       .  S
C1617      F1632   1.381       .  S
C1619      F1627   1.385       .  S
C1619      F1628   1.382       .  S
C1619      F1629   1.383       .  S
C1633      C1634   1.400       .  A
C1633      C1638   1.409       .  A
C1633      H1643   1.083       .  S
C1634      C1639   1.485       .  S
C1634      C1635   1.411       .  A
C1635      C1636   1.407       .  A
C1635      C1640   1.520       .  S
C1636      C1637   1.413       .  A
C1636      H1641   1.081       .  S
C1637      C1638   1.427       .  A
C1638      C1642   1.520       .  S
C1639      C1644   1.418       .  A
C1639      C1648   1.401       .  A
C1640      F1656   1.383       .  S
C1640      F1657   1.381       .  S
C1640      F1658   1.385       .  S
C1642      F1653   1.385       .  S
C1642      F1654   1.384       .  S
C1642      F1655   1.382       .  S
C1644      C1645   1.409       .  A
C1644      C1649   1.521       .  S
C1645      C1646   1.402       .  A
C1645      H1650   1.083       .  S
C1646      C1647   1.419       .  A
C1647      C1648   1.408       .  A
C1647      C1651   1.520       .  S
C1648      H1652   1.083       .  S
C1649      F1662   1.384       .  S
C1649      F1663   1.383       .  S
C1649      F1664   1.381       .  S
C1651      F1659   1.382       .  S
C1651      F1660   1.383       .  S
C1651      F1661   1.384       .  S
C1665      C1666   1.399   1_655  A
C1665      C1670   1.407       .  A
C1665      H1675   1.083       .  S
C1666      C1671   1.489       .  S
C1666      C1667   1.416       .  A
C1667      C1668   1.412       .  A
C1667      C1672   1.520       .  S
C1668      C1669   1.408   1_455  A
C1668      H1673   1.083       .  S
C1669      C1670   1.424       .  A
C1670      C1674   1.520       .  S
C1671      C1676   1.417       .  A
C1671      C1680   1.403       .  A
C1672      F1688   1.382       .  S
C1672      F1689   1.382       .  S
C1672      F1690   1.385       .  S
C1674      F1685   1.381       .  S
C1674      F1686   1.385       .  S
C1674      F1687   1.384       .  S
C1676      C1677   1.408       .  A
C1676      C1681   1.519       .  S
C1677      C1678   1.403       .  A
C1677      H1682   1.083       .  S
C1678      C1679   1.419       .  A
C1679      C1680   1.407       .  A
C1679      C1683   1.519       .  S
C1680      H1684   1.085       .  S
C1681      F1694   1.385       .  S
C1681      F1695   1.382   1_455  S
C1681      F1696   1.382       .  S
C1683      F1691   1.383       .  S
C1683      F1692   1.381       .  S
C1683      F1693   1.384       .  S
C1697      C1698   1.395       .  A
C1697      C1702   1.407       .  A
C1697      H1707   1.083       .  S
C1698      C1703   1.483       .  S
C1698      C1699   1.411       .  A
C1699      C1700   1.408       .  A
C1699      C1704   1.520       .  S
C1700      C1701   1.413       .  A
C1700      H1705   1.082       .  S
C1701      C1702   1.433       .  A
C1702      C1706   1.521       .  S
C1703      C1708   1.413       .  A
C1703      C1712   1.402       .  A
C1704      F1720   1.383       .  S
C1704      F1721   1.382       .  S
C1704      F1722   1.385       .  S
C1706      F1717   1.383       .  S
C1706      F1718   1.385       .  S
C1706      F1719   1.382       .  S
C1708      C1709   1.403       .  A
C1708      C1713   1.521       .  S
C1709      C1710   1.407       .  A
C1709      H1714   1.083       .  S
C1710      C1711   1.422       .  A
C1711      C1712   1.411       .  A
C1711      C1715   1.518       .  S
C1712      H1716   1.083       .  S
C1713      F1726   1.384       .  S
C1713      F1727   1.382       .  S
C1713      F1728   1.382       .  S
C1715      F1723   1.383       .  S
C1715      F1724   1.383       .  S
C1715      F1725   1.385       .  S
C1729      C1730   1.401       .  A
C1729      C1734   1.408       .  A
C1729      H1739   1.083       .  S
C1730      C1735   1.484       .  S
C1730      C1731   1.415       .  A
C1731      C1732   1.407       .  A
C1731      C1736   1.519       .  S
C1732      C1733   1.405       .  A
C1732      H1737   1.083       .  S
C1733      C1734   1.421       .  A
C1734      C1738   1.520       .  S
C1735      C1740   1.416       .  A
C1735      C1744   1.400       .  A
C1736      F1752   1.382       .  S
C1736      F1753   1.382       .  S
C1736      F1754   1.384       .  S
C1738      F1749   1.384       .  S
C1738      F1750   1.382       .  S
C1738      F1751   1.384       .  S
C1740      C1741   1.410       .  A
C1740      C1745   1.517       .  S
C1741      C1742   1.404       .  A
C1741      H1746   1.083       .  S
C1742      C1743   1.419       .  A
C1743      C1744   1.404       .  A
C1743      C1747   1.519       .  S
C1744      H1748   1.083       .  S
C1745      F1758   1.385       .  S
C1745      F1759   1.382       .  S
C1745      F1760   1.382       .  S
C1747      F1755   1.380       .  S
C1747      F1756   1.383       .  S
C1747      F1757   1.385       .  S
C1761      C1762   1.401       .  A
C1761      C1766   1.406       .  A
C1761      H1771   1.083       .  S
C1762      C1767   1.485       .  S
C1762      C1763   1.412       .  A
C1763      C1764   1.410       .  A
C1763      C1768   1.519       .  S
C1764      C1765   1.411       .  A
C1764      H1769   1.083       .  S
C1765      C1766   1.423       .  A
C1766      C1770   1.520       .  S
C1767      C1772   1.417       .  A
C1767      C1776   1.405       .  A
C1768      F1784   1.382       .  S
C1768      F1785   1.382       .  S
C1768      F1786   1.384       .  S
C1770      F1781   1.383       .  S
C1770      F1782   1.385       .  S
C1770      F1783   1.383       .  S
C1772      C1773   1.404       .  A
C1772      C1777   1.520       .  S
C1773      C1774   1.401       .  A
C1773      H1778   1.084       .  S
C1774      C1775   1.413       .  A
C1775      C1776   1.408       .  A
C1775      C1779   1.518       .  S
C1776      H1780   1.083       .  S
C1777      F1790   1.385       .  S
C1777      F1791   1.382       .  S
C1777      F1792   1.381       .  S
C1779      F1787   1.384       .  S
C1779      F1788   1.383       .  S
C1779      F1789   1.383       .  S
C1793      C1794   1.404   1_554  A
C1793      C1798   1.408       .  A
C1793      H1803   1.083       .  S
C1794      C1799   1.490       .  S
C1794      C1795   1.417       .  A
C1795      C1796   1.409   1_556  A
C1795      C1800   1.518       .  S
C1796      C1797   1.402       .  A
C1796      H1801   1.083       .  S
C1797      C1798   1.415       .  A
C1798      C1802   1.517       .  S
C1799      C1804   1.417       .  A
C1799      C1808   1.403       .  A
C1800      F1816   1.382       .  S
C1800      F1817   1.382       .  S
C1800      F1818   1.385       .  S
C1802      F1813   1.383       .  S
C1802      F1814   1.383       .  S
C1802      F1815   1.385       .  S
C1804      C1805   1.408       .  A
C1804      C1809   1.519       .  S
C1805      C1806   1.402       .  A
C1805      H1810   1.083       .  S
C1806      C1807   1.420       .  A
C1807      C1808   1.411       .  A
C1807      C1811   1.519       .  S
C1808      H1812   1.083       .  S
C1809      F1822   1.384       .  S
C1809      F1823   1.382       .  S
C1809      F1824   1.382       .  S
C1811      F1819   1.382       .  S
C1811      F1820   1.384       .  S
C1811      F1821   1.385       .  S
C1825      C1826   1.402       .  A
C1825      C1830   1.409       .  A
C1825      H1835   1.083       .  S
C1826      C1831   1.486       .  S
C1826      C1827   1.416       .  A
C1827      C1828   1.407       .  A
C1827      C1832   1.520       .  S
C1828      C1829   1.404       .  A
C1828      H1833   1.083       .  S
C1829      C1830   1.419       .  A
C1830      C1834   1.518       .  S
C1831      C1836   1.414       .  A
C1831      C1840   1.401       .  A
C1832      F1848   1.382       .  S
C1832      F1849   1.382       .  S
C1832      F1850   1.384       .  S
C1834      F1845   1.384       .  S
C1834      F1846   1.382       .  S
C1834      F1847   1.384       .  S
C1836      C1837   1.407       .  A
C1836      C1841   1.521       .  S
C1837      C1838   1.408       .  A
C1837      H1842   1.083       .  S
C1838      C1839   1.420       .  A
C1839      C1840   1.410       .  A
C1839      C1843   1.515       .  S
C1840      H1844   1.083       .  S
C1841      F1854   1.384       .  S
C1841      F1855   1.382       .  S
C1841      F1856   1.382       .  S
C1843      F1851   1.381       .  S
C1843      F1852   1.383       .  S
C1843      F1853   1.385       .  S
C1857      C1858   1.400       .  A
C1857      C1862   1.407   1_455  A
C1857      H1867   1.083       .  S
C1858      C1863   1.481       .  S
C1858      C1859   1.414   1_455  A
C1859      C1860   1.406       .  A
C1859      C1864   1.521       .  S
C1860      C1861   1.405       .  A
C1860      H1865   1.083       .  S
C1861      C1862   1.421       .  A
C1862      C1866   1.520       .  S
C1863      C1868   1.413       .  A
C1863      C1872   1.398       .  A
C1864      F1880   1.382   1_655  S
C1864      F1881   1.382       .  S
C1864      F1882   1.384       .  S
C1866      F1877   1.384       .  S
C1866      F1878   1.383       .  S
C1866      F1879   1.384       .  S
C1868      C1869   1.407       .  A
C1868      C1873   1.520   1_455  S
C1869      C1870   1.409       .  A
C1869      H1874   1.083       .  S
C1870      C1871   1.426       .  A
C1871      C1872   1.406       .  A
C1871      C1875   1.521       .  S
C1872      H1876   1.083       .  S
C1873      F1886   1.384       .  S
C1873      F1887   1.382       .  S
C1873      F1888   1.382       .  S
C1875      F1883   1.385       .  S
C1875      F1884   1.383       .  S
C1875      F1885   1.383       .  S
C1889      C1890   1.401       .  A
C1889      C1894   1.407       .  A
C1889      H1899   1.083       .  S
C1890      C1895   1.480       .  S
C1890      C1891   1.413       .  A
C1891      C1892   1.404       .  A
C1891      C1896   1.520       .  S
C1892      C1893   1.407       .  A
C1892      H1897   1.083       .  S
C1893      C1894   1.420       .  A
C1894      C1898   1.517       .  S
C1895      C1900   1.413       .  A
C1895      C1904   1.401       .  A
C1896      F1912   1.382       .  S
C1896      F1913   1.382       .  S
C1896      F1914   1.384       .  S
C1898      F1909   1.382       .  S
C1898      F1910   1.385       .  S
C1898      F1911   1.383       .  S
C1900      C1901   1.402       .  A
C1900      C1905   1.522       .  S
C1901      C1902   1.407       .  A
C1901      H1906   1.083       .  S
C1902      C1903   1.424       .  A
C1903      C1904   1.410       .  A
C1903      C1907   1.520       .  S
C1904      H1908   1.083       .  S
C1905      F1918   1.384       .  S
C1905      F1919   1.382       .  S
C1905      F1920   1.382       .  S
C1907      F1915   1.385       .  S
C1907      F1916   1.383       .  S
C1907      F1917   1.383       .  S
C1921      C1922   1.403       .  A
C1921      C1926   1.410       .  A
C1921      H1931   1.083       .  S
C1922      C1927   1.487       .  S
C1922      C1923   1.416       .  A
C1923      C1924   1.405       .  A
C1923      C1928   1.520       .  S
C1924      C1925   1.403       .  A
C1924      H1929   1.083       .  S
C1925      C1926   1.421       .  A
C1926      C1930   1.520       .  S
C1927      C1932   1.415       .  A
C1927      C1936   1.401       .  A
C1928      F1944   1.382       .  S
C1928      F1945   1.382       .  S
C1928      F1946   1.384       .  S
C1930      F1941   1.383       .  S
C1930      F1942   1.384       .  S
C1930      F1943   1.384       .  S
C1932      C1933   1.409       .  A
C1932      C1937   1.519       .  S
C1933      C1934   1.405       .  A
C1933      H1938   1.083       .  S
C1934      C1935   1.419       .  A
C1935      C1936   1.408       .  A
C1935      C1939   1.519       .  S
C1936      H1940   1.083       .  S
C1937      F1950   1.384       .  S
C1937      F1951   1.383       .  S
C1937      F1952   1.383       .  S
C1939      F1947   1.382       .  S
C1939      F1948   1.384       .  S
C1939      F1949   1.384       .  S
C1953      C1954   1.403       .  A
C1953      C1958   1.409       .  A
C1953      H1963   1.083       .  S
C1954      C1959   1.486       .  S
C1954      C1955   1.413       .  A
C1955      C1956   1.405       .  A
C1955      C1960   1.520       .  S
C1956      C1957   1.409       .  A
C1956      H1961   1.083       .  S
C1957      C1958   1.421       .  A
C1958      C1962   1.520       .  S
C1959      C1964   1.416       .  A
C1959      C1968   1.403       .  A
C1960      F1976   1.382       .  S
C1960      F1977   1.382       .  S
C1960      F1978   1.385       .  S
C1962      F1973   1.384       .  S
C1962      F1974   1.385       .  S
C1962      F1975   1.382       .  S
C1964      C1965   1.409       .  A
C1964      C1969   1.521       .  S
C1965      C1966   1.405       .  A
C1965      H1970   1.083       .  S
C1966      C1967   1.415       .  A
C1967      C1968   1.408       .  A
C1967      C1971   1.517       .  S
C1968      H1972   1.083       .  S
C1969      F1982   1.384       .  S
C1969      F1983   1.382       .  S
C1969      F1984   1.382       .  S
C1971      F1979   1.383       .  S
C1971      F1980   1.383       .  S
C1971      F1981   1.384       .  S
C1985      C1986   1.401       .  A
C1985      C1990   1.408       .  A
C1985      H1995   1.083       .  S
C1986      C1991   1.483       .  S
C1986      C1987   1.413       .  A
C1987      C1988   1.406       .  A
C1987      C1992   1.520       .  S
C1988      C1989   1.407       .  A
C1988      H1993   1.083       .  S
C1989      C1990   1.423       .  A
C1990      C1994   1.520       .  S
C1991      C1996   1.415       .  A
C1991      C2000   1.401       .  A
C1992      F2008   1.382       .  S
C1992      F2009   1.382       .  S
C1992      F2010   1.384       .  S
C1994      F2005   1.382       .  S
C1994      F2006   1.385       .  S
C1994      F2007   1.383       .  S
C1996      C1997   1.407       .  A
C1996      C2001   1.519       .  S
C1997      C1998   1.404       .  A
C1997      H2002   1.083       .  S
C1998      C1999   1.419       .  A
C1999      C2000   1.405       .  A
C1999      C2003   1.520       .  S
C2000      H2004   1.083       .  S
C2001      F2014   1.384       .  S
C2001      F2015   1.382       .  S
C2001      F2016   1.382       .  S
C2003      F2011   1.385       .  S
C2003      F2012   1.382       .  S
C2003      F2013   1.384       .  S
C2017      C2018   1.405       .  A
C2017      C2022   1.412       .  A
C2017      H2027   1.083       .  S
C2018      C2023   1.490       .  S
C2018      C2019   1.419       .  A
C2019      C2020   1.407       .  A
C2019      C2024   1.520       .  S
C2020      C2021   1.400       .  A
C2020      H2025   1.083       .  S
C2021      C2022   1.415       .  A
C2022      C2026   1.517       .  S
C2023      C2028   1.415       .  A
C2023      C2032   1.402       .  A
C2024      F2040   1.382       .  S
C2024      F2041   1.382       .  S
C2024      F2042   1.385   1_455  S
C2026      F2037   1.384       .  S
C2026      F2038   1.383       .  S
C2026      F2039   1.383       .  S
C2028      C2029   1.410       .  A
C2028      C2033   1.517       .  S
C2029      C2030   1.406       .  A
C2029      H2034   1.083       .  S
C2030      C2031   1.421       .  A
C2031      C2032   1.407       .  A
C2031      C2035   1.520       .  S
C2032      H2036   1.084       .  S
C2033      F2046   1.385       .  S
C2033      F2047   1.382       .  S
C2033      F2048   1.382       .  S
C2035      F2043   1.385       .  S
C2035      F2044   1.384       .  S
C2035      F2045   1.382       .  S
C2049      C2050   1.401       .  A
C2049      C2054   1.405       .  A
C2049      H2059   1.083       .  S
C2050      C2055   1.485       .  S
C2050      C2051   1.419       .  A
C2051      C2052   1.410       .  A
C2051      C2056   1.520       .  S
C2052      C2053   1.404       .  A
C2052      H2057   1.083       .  S
C2053      C2054   1.417       .  A
C2054      C2058   1.518       .  S
C2055      C2060   1.416       .  A
C2055      C2064   1.396       .  A
C2056      F2072   1.382       .  S
C2056      F2073   1.382       .  S
C2056      F2074   1.385       .  S
C2058      F2069   1.384       .  S
C2058      F2070   1.382       .  S
C2058      F2071   1.384       .  S
C2060      C2061   1.413       .  A
C2060      C2065   1.518       .  S
C2061      C2062   1.408       .  A
C2061      H2066   1.083       .  S
C2062      C2063   1.425       .  A
C2063      C2064   1.402       .  A
C2063      C2067   1.519       .  S
C2064      H2068   1.084       .  S
C2065      F2078   1.384       .  S
C2065      F2079   1.382       .  S
C2065      F2080   1.382       .  S
C2067      F2075   1.382       .  S
C2067      F2076   1.383       .  S
C2067      F2077   1.385       .  S
C2081      C2082   1.404       .  A
C2081      C2086   1.409       .  A
C2081      H2091   1.083       .  S
C2082      C2087   1.482       .  S
C2082      C2083   1.413       .  A
C2083      C2084   1.404       .  A
C2083      C2088   1.521       .  S
C2084      C2085   1.405       .  A
C2084      H2089   1.083       .  S
C2085      C2086   1.417       .  A
C2086      C2090   1.518       .  S
C2087      C2092   1.416       .  A
C2087      C2096   1.403       .  A
C2088      F2104   1.382       .  S
C2088      F2105   1.382       .  S
C2088      F2106   1.384       .  S
C2090      F2101   1.382       .  S
C2090      F2102   1.385       .  S
C2090      F2103   1.383       .  S
C2092      C2093   1.406       .  A
C2092      C2097   1.520       .  S
C2093      C2094   1.402       .  A
C2093      H2098   1.083       .  S
C2094      C2095   1.413   1_565  A
C2095      C2096   1.405   1_545  A
C2095      C2099   1.518       .  S
C2096      H2100   1.083   1_565  S
C2097      F2110   1.384       .  S
C2097      F2111   1.382       .  S
C2097      F2112   1.382       .  S
C2099      F2107   1.382       .  S
C2099      F2108   1.384       .  S
C2099      F2109   1.385       .  S
C2113      C2114   1.405       .  A
C2113      C2118   1.411       .  A
C2113      H2123   1.083       .  S
C2114      C2119   1.490       .  S
C2114      C2115   1.415       .  A
C2115      C2116   1.407       .  A
C2115      C2120   1.520       .  S
C2116      C2117   1.405       .  A
C2116      H2121   1.084       .  S
C2117      C2118   1.414       .  A
C2118      C2122   1.512   1_556  S
C2119      C2124   1.412       .  A
C2119      C2128   1.401       .  A
C2120      F2136   1.382       .  S
C2120      F2137   1.382       .  S
C2120      F2138   1.385       .  S
C2122      F2133   1.384       .  S
C2122      F2134   1.380   1_554  S
C2122      F2135   1.383       .  S
C2124      C2125   1.405       .  A
C2124      C2129   1.522       .  S
C2125      C2126   1.414       .  A
C2125      H2130   1.081       .  S
C2126      C2127   1.430       .  A
C2127      C2128   1.414       .  A
C2127      C2131   1.521       .  S
C2128      H2132   1.083       .  S
C2129      F2142   1.385   1_556  S
C2129      F2143   1.381   1_556  S
C2129      F2144   1.382       .  S
C2131      F2139   1.385       .  S
C2131      F2140   1.383       .  S
C2131      F2141   1.384       .  S
C2145      C2146   1.405       .  A
C2145      C2150   1.410       .  A
C2145      H2155   1.083       .  S
C2146      C2151   1.492       .  S
C2146      C2147   1.418       .  A
C2147      C2148   1.409       .  A
C2147      C2152   1.518   1_554  S
C2148      C2149   1.402       .  A
C2148      H2153   1.083   1_554  S
C2149      C2150   1.416       .  A
C2150      C2154   1.517       .  S
C2151      C2156   1.417       .  A
C2151      C2160   1.404       .  A
C2152      F2168   1.382   1_556  S
C2152      F2169   1.382       .  S
C2152      F2170   1.385       .  S
C2154      F2165   1.383       .  S
C2154      F2166   1.385       .  S
C2154      F2167   1.382       .  S
C2156      C2157   1.407       .  A
C2156      C2161   1.520       .  S
C2157      C2158   1.403       .  A
C2157      H2162   1.083       .  S
C2158      C2159   1.420       .  A
C2159      C2160   1.413       .  A
C2159      C2163   1.518       .  S
C2160      H2164   1.083       .  S
C2161      F2174   1.384       .  S
C2161      F2175   1.382       .  S
C2161      F2176   1.382       .  S
C2163      F2171   1.385       .  S
C2163      F2172   1.381       .  S
C2163      F2173   1.384       .  S
C2177      C2178   1.404       .  A
C2177      C2182   1.414       .  A
C2177      H2187   1.083       .  S
C2178      C2183   1.492       .  S
C2178      C2179   1.413       .  A
C2179      C2180   1.409       .  A
C2179      C2184   1.521       .  S
C2180      C2181   1.411       .  A
C2180      H2185   1.083       .  S
C2181      C2182   1.421       .  A
C2182      C2186   1.517       .  S
C2183      C2188   1.419       .  A
C2183      C2192   1.403       .  A
C2184      F2200   1.383       .  S
C2184      F2201   1.382       .  S
C2184      F2202   1.384       .  S
C2186      F2197   1.383       .  S
C2186      F2198   1.384       .  S
C2186      F2199   1.382   1_556  S
C2188      C2189   1.411       .  A
C2188      C2193   1.521       .  S
C2189      C2190   1.403       .  A
C2189      H2194   1.083       .  S
C2190      C2191   1.415       .  A
C2191      C2192   1.411       .  A
C2191      C2195   1.516       .  S
C2192      H2196   1.083       .  S
C2193      F2206   1.384       .  S
C2193      F2207   1.382       .  S
C2193      F2208   1.382       .  S
C2195      F2203   1.384       .  S
C2195      F2204   1.383       .  S
C2195      F2205   1.384       .  S
C2209      C2210   1.402       .  A
C2209      C2214   1.413       .  A
C2209      H2219   1.083       .  S
C2210      C2215   1.490       .  S
C2210      C2211   1.414       .  A
C2211      C2212   1.406       .  A
C2211      C2216   1.521       .  S
C2212      C2213   1.409       .  A
C2212      H2217   1.083       .  S
C2213      C2214   1.424       .  A
C2214      C2218   1.518       .  S
C2215      C2220   1.417       .  A
C2215      C2224   1.402       .  A
C2216      F2232   1.382       .  S
C2216      F2233   1.382       .  S
C2216      F2234   1.385       .  S
C2218      F2229   1.383       .  S
C2218      F2230   1.385       .  S
C2218      F2231   1.383       .  S
C2220      C2221   1.408       .  A
C2220      C2225   1.520       .  S
C2221      C2222   1.405       .  A
C2221      H2226   1.083       .  S
C2222      C2223   1.422       .  A
C2223      C2224   1.410       .  A
C2223      C2227   1.518       .  S
C2224      H2228   1.083       .  S
C2225      F2238   1.385       .  S
C2225      F2239   1.382       .  S
C2225      F2240   1.383       .  S
C2227      F2235   1.385       .  S
C2227      F2236   1.383       .  S
C2227      F2237   1.382       .  S
C2241      C2242   1.399       .  A
C2241      C2246   1.409       .  A
C2241      H2251   1.083       .  S
C2242      C2247   1.487       .  S
C2242      C2243   1.413       .  A
C2243      C2244   1.408       .  A
C2243      C2248   1.520       .  S
C2244      C2245   1.410       .  A
C2244      H2249   1.080       .  S
C2245      C2246   1.427       .  A
C2246      C2250   1.521       .  S
C2247      C2252   1.416       .  A
C2247      C2256   1.401       .  A
C2248      F2264   1.382       .  S
C2248      F2265   1.382       .  S
C2248      F2266   1.385       .  S
C2250      F2261   1.385       .  S
C2250      F2262   1.384       .  S
C2250      F2263   1.383       .  S
C2252      C2253   1.408       .  A
C2252      C2257   1.519       .  S
C2253      C2254   1.404       .  A
C2253      H2258   1.083       .  S
C2254      C2255   1.422       .  A
C2255      C2256   1.408       .  A
C2255      C2259   1.520       .  S
C2256      H2260   1.083       .  S
C2257      F2270   1.384       .  S
C2257      F2271   1.383       .  S
C2257      F2272   1.382       .  S
C2259      F2267   1.383       .  S
C2259      F2268   1.383       .  S
C2259      F2269   1.385       .  S
C2273      C2274   1.400       .  A
C2273      C2278   1.402       .  A
C2273      H2283   1.083       .  S
C2274      C2279   1.474       .  S
C2274      C2275   1.413       .  A
C2275      C2276   1.404       .  A
C2275      C2280   1.519       .  S
C2276      C2277   1.403       .  A
C2276      H2281   1.083       .  S
C2277      C2278   1.416       .  A
C2278      C2282   1.520       .  S
C2279      C2284   1.413       .  A
C2279      C2288   1.399       .  A
C2280      F2296   1.383       .  S
C2280      F2297   1.382       .  S
C2280      F2298   1.384       .  S
C2282      F2293   1.382       .  S
C2282      F2294   1.384       .  S
C2282      F2295   1.384       .  S
C2284      C2285   1.403       .  A
C2284      C2289   1.519       .  S
C2285      C2286   1.403       .  A
C2285      H2290   1.083       .  S
C2286      C2287   1.420       .  A
C2287      C2288   1.403       .  A
C2287      C2291   1.519       .  S
C2288      H2292   1.083       .  S
C2289      F2302   1.384       .  S
C2289      F2303   1.382       .  S
C2289      F2304   1.382       .  S
C2291      F2299   1.385       .  S
C2291      F2300   1.382       .  S
C2291      F2301   1.380       .  S
C2305      C2306   1.400       .  A
C2305      C2310   1.408       .  A
C2305      H2315   1.083       .  S
C2306      C2311   1.492       .  S
C2306      C2307   1.415       .  A
C2307      C2308   1.412       .  A
C2307      C2312   1.518       .  S
C2308      C2309   1.409       .  A
C2308      H2313   1.083       .  S
C2309      C2310   1.428       .  A
C2310      C2314   1.523       .  S
C2311      C2316   1.416       .  A
C2311      C2320   1.407       .  A
C2312      F2328   1.382       .  S
C2312      F2329   1.382       .  S
C2312      F2330   1.385       .  S
C2314      F2325   1.385       .  S
C2314      F2326   1.383       .  S
C2314      F2327   1.384       .  S
C2316      C2317   1.403       .  A
C2316      C2321   1.521       .  S
C2317      C2318   1.406       .  A
C2317      H2322   1.083       .  S
C2318      C2319   1.417       .  A
C2319      C2320   1.415       .  A
C2319      C2323   1.515       .  S
C2320      H2324   1.083       .  S
C2321      F2334   1.385       .  S
C2321      F2335   1.382       .  S
C2321      F2336   1.382       .  S
C2323      F2331   1.380       .  S
C2323      F2332   1.384       .  S
C2323      F2333   1.385       .  S
C2337      C2338   1.403       .  A
C2337      C2342   1.405       .  A
C2337      H2347   1.083       .  S
C2338      C2343   1.479       .  S
C2338      C2339   1.414       .  A
C2339      C2340   1.404       .  A
C2339      C2344   1.519       .  S
C2340      C2341   1.401       .  A
C2340      H2345   1.083       .  S
C2341      C2342   1.414       .  A
C2342      C2346   1.519       .  S
C2343      C2348   1.415   1_556  A
C2343      C2352   1.402       .  A
C2344      F2360   1.382       .  S
C2344      F2361   1.381       .  S
C2344      F2362   1.385       .  S
C2346      F2357   1.385       .  S
C2346      F2358   1.382       .  S
C2346      F2359   1.383       .  S
C2348      C2349   1.405       .  A
C2348      C2353   1.521       .  S
C2349      C2350   1.402       .  A
C2349      H2354   1.083       .  S
C2350      C2351   1.415       .  A
C2351      C2352   1.407   1_554  A
C2351      C2355   1.517   1_554  S
C2352      H2356   1.083       .  S
C2353      F2366   1.384       .  S
C2353      F2367   1.382       .  S
C2353      F2368   1.382       .  S
C2355      F2363   1.385       .  S
C2355      F2364   1.383   1_556  S
C2355      F2365   1.383       .  S
C2369      C2370   1.401       .  A
C2369      C2374   1.409       .  A
C2369      H2379   1.083       .  S
C2370      C2375   1.486       .  S
C2370      C2371   1.417       .  A
C2371      C2372   1.409       .  A
C2371      C2376   1.521       .  S
C2372      C2373   1.403       .  A
C2372      H2377   1.083       .  S
C2373      C2374   1.416       .  A
C2374      C2378   1.516       .  S
C2375      C2380   1.417       .  A
C2375      C2384   1.403       .  A
C2376      F2392   1.383       .  S
C2376      F2393   1.383       .  S
C2376      F2394   1.384       .  S
C2378      F2389   1.383       .  S
C2378      F2390   1.385       .  S
C2378      F2391   1.382       .  S
C2380      C2381   1.406       .  A
C2380      C2385   1.519       .  S
C2381      C2382   1.401       .  A
C2381      H2386   1.084   1_655  S
C2382      C2383   1.416       .  A
C2383      C2384   1.408       .  A
C2383      C2387   1.518       .  S
C2384      H2388   1.083       .  S
C2385      F2398   1.385   1_655  S
C2385      F2399   1.382       .  S
C2385      F2400   1.382       .  S
C2387      F2395   1.383       .  S
C2387      F2396   1.383       .  S
C2387      F2397   1.385       .  S
C2401      C2402   1.405       .  A
C2401      C2406   1.410       .  A
C2401      H2411   1.083       .  S
C2402      C2407   1.492       .  S
C2402      C2403   1.418       .  A
C2403      C2404   1.408       .  A
C2403      C2408   1.517       .  S
C2404      C2405   1.402       .  A
C2404      H2409   1.084       .  S
C2405      C2406   1.415       .  A
C2406      C2410   1.516       .  S
C2407      C2412   1.418       .  A
C2407      C2416   1.402       .  A
C2408      F2424   1.382       .  S
C2408      F2425   1.382       .  S
C2408      F2426   1.385       .  S
C2410      F2421   1.383       .  S
C2410      F2422   1.385       .  S
C2410      F2423   1.378       .  S
C2412      C2413   1.413       .  A
C2412      C2417   1.518       .  S
C2413      C2414   1.404       .  A
C2413      H2418   1.083       .  S
C2414      C2415   1.417       .  A
C2415      C2416   1.407       .  A
C2415      C2419   1.517       .  S
C2416      H2420   1.083       .  S
C2417      F2430   1.385       .  S
C2417      F2431   1.382       .  S
C2417      F2432   1.382       .  S
C2419      F2427   1.381       .  S
C2419      F2428   1.382       .  S
C2419      F2429   1.385       .  S
C2433      C2434   1.401       .  A
C2433      C2438   1.408       .  A
C2433      H2443   1.083       .  S
C2434      C2439   1.489       .  S
C2434      C2435   1.415       .  A
C2435      C2436   1.410       .  A
C2435      C2440   1.519       .  S
C2436      C2437   1.407       .  A
C2436      H2441   1.083       .  S
C2437      C2438   1.421       .  A
C2438      C2442   1.515       .  S
C2439      C2444   1.415       .  A
C2439      C2448   1.402   1_655  A
C2440      F2456   1.382   1_655  S
C2440      F2457   1.382       .  S
C2440      F2458   1.385       .  S
C2442      F2453   1.382       .  S
C2442      F2454   1.385       .  S
C2442      F2455   1.383       .  S
C2444      C2445   1.407   1_655  A
C2444      C2449   1.520       .  S
C2445      C2446   1.406       .  A
C2445      H2450   1.083   1_455  S
C2446      C2447   1.423       .  A
C2447      C2448   1.410       .  A
C2447      C2451   1.519       .  S
C2448      H2452   1.083       .  S
C2449      F2462   1.385       .  S
C2449      F2463   1.381       .  S
C2449      F2464   1.382       .  S
C2451      F2459   1.381       .  S
C2451      F2460   1.383       .  S
C2451      F2461   1.385       .  S
C2465      C2466   1.401       .  A
C2465      C2470   1.407       .  A
C2465      H2475   1.083       .  S
C2466      C2471   1.490       .  S
C2466      C2467   1.416       .  A
C2467      C2468   1.412       .  A
C2467      C2472   1.518       .  S
C2468      C2469   1.406       .  A
C2468      H2473   1.083       .  S
C2469      C2470   1.420       .  A
C2470      C2474   1.516       .  S
C2471      C2476   1.418       .  A
C2471      C2480   1.403       .  A
C2472      F2488   1.382       .  S
C2472      F2489   1.381       .  S
C2472      F2490   1.384       .  S
C2474      F2485   1.385       .  S
C2474      F2486   1.382       .  S
C2474      F2487   1.384       .  S
C2476      C2477   1.411       .  A
C2476      C2481   1.520       .  S
C2477      C2478   1.404       .  A
C2477      H2482   1.083       .  S
C2478      C2479   1.415       .  A
C2479      C2480   1.408       .  A
C2479      C2483   1.516       .  S
C2480      H2484   1.083       .  S
C2481      F2494   1.384       .  S
C2481      F2495   1.382       .  S
C2481      F2496   1.382       .  S
C2483      F2491   1.381       .  S
C2483      F2492   1.384       .  S
C2483      F2493   1.384       .  S
C2497      C2498   1.401       .  A
C2497      C2502   1.405       .  A
C2497      H2507   1.085       .  S
C2498      C2503   1.482       .  S
C2498      C2499   1.414       .  A
C2499      C2500   1.406       .  A
C2499      C2504   1.519       .  S
C2500      C2501   1.405       .  A
C2500      H2505   1.082       .  S
C2501      C2502   1.420       .  A
C2502      C2506   1.517       .  S
C2503      C2508   1.416       .  A
C2503      C2512   1.401   1_545  A
C2504      F2520   1.382   1_545  S
C2504      F2521   1.382       .  S
C2504      F2522   1.385       .  S
C2506      F2517   1.383       .  S
C2506      F2518   1.384       .  S
C2506      F2519   1.380       .  S
C2508      C2509   1.407   1_545  A
C2508      C2513   1.519       .  S
C2509      C2510   1.402       .  A
C2509      H2514   1.083       .  S
C2510      C2511   1.415       .  A
C2511      C2512   1.406       .  A
C2511      C2515   1.516       .  S
C2512      H2516   1.083       .  S
C2513      F2526   1.384       .  S
C2513      F2527   1.382       .  S
C2513      F2528   1.382       .  S
C2515      F2523   1.385       .  S
C2515      F2524   1.383       .  S
C2515      F2525   1.379       .  S
C2529      C2530   1.402       .  A
C2529      C2534   1.406       .  A
C2529      H2539   1.084       .  S
C2530      C2535   1.494       .  S
C2530      C2531   1.419       .  A
C2531      C2532   1.412       .  A
C2531      C2536   1.518       .  S
C2532      C2533   1.403       .  A
C2532      H2537   1.083       .  S
C2533      C2534   1.420       .  A
C2534      C2538   1.520       .  S
C2535      C2540   1.417       .  A
C2535      C2544   1.406       .  A
C2536      F2552   1.382       .  S
C2536      F2553   1.382       .  S
C2536      F2554   1.385       .  S
C2538      F2549   1.384       .  S
C2538      F2550   1.383       .  S
C2538      F2551   1.382       .  S
C2540      C2541   1.408       .  A
C2540      C2545   1.520       .  S
C2541      C2542   1.405       .  A
C2541      H2546   1.083       .  S
C2542      C2543   1.417       .  A
C2543      C2544   1.413       .  A
C2543      C2547   1.517       .  S
C2544      H2548   1.083       .  S
C2545      F2558   1.385       .  S
C2545      F2559   1.382       .  S
C2545      F2560   1.382       .  S
C2547      F2555   1.385       .  S
C2547      F2556   1.383       .  S
C2547      F2557   1.382       .  S
C2561      C2562   1.402       .  A
C2561      C2566   1.414       .  A
C2561      H2571   1.083       .  S
C2562      C2567   1.492       .  S
C2562      C2563   1.416       .  A
C2563      C2564   1.408       .  A
C2563      C2568   1.521       .  S
C2564      C2565   1.408       .  A
C2564      H2569   1.083       .  S
C2565      C2566   1.425       .  A
C2566      C2570   1.519       .  S
C2567      C2572   1.418       .  A
C2567      C2576   1.403       .  A
C2568      F2584   1.382       .  S
C2568      F2585   1.382       .  S
C2568      F2586   1.385       .  S
C2570      F2581   1.385       .  S
C2570      F2582   1.384       .  S
C2570      F2583   1.382       .  S
C2572      C2573   1.412       .  A
C2572      C2577   1.518       .  S
C2573      C2574   1.404       .  A
C2573      H2578   1.083       .  S
C2574      C2575   1.415       .  A
C2575      C2576   1.409       .  A
C2575      C2579   1.515       .  S
C2576      H2580   1.083       .  S
C2577      F2590   1.385       .  S
C2577      F2591   1.382       .  S
C2577      F2592   1.382       .  S
C2579      F2587   1.385       .  S
C2579      F2588   1.383       .  S
C2579      F2589   1.382       .  S
C2593      C2594   1.402       .  A
C2593      C2598   1.411       .  A
C2593      H2603   1.083       .  S
C2594      C2599   1.487       .  S
C2594      C2595   1.415       .  A
C2595      C2596   1.405       .  A
C2595      C2600   1.521       .  S
C2596      C2597   1.406       .  A
C2596      H2601   1.083       .  S
C2597      C2598   1.421       .  A
C2598      C2602   1.519       .  S
C2599      C2604   1.414       .  A
C2599      C2608   1.400       .  A
C2600      F2616   1.382       .  S
C2600      F2617   1.382       .  S
C2600      F2618   1.385       .  S
C2602      F2613   1.385       .  S
C2602      F2614   1.383       .  S
C2602      F2615   1.383       .  S
C2604      C2605   1.407       .  A
C2604      C2609   1.518       .  S
C2605      C2606   1.407       .  A
C2605      H2610   1.083       .  S
C2606      C2607   1.425       .  A
C2607      C2608   1.408       .  A
C2607      C2611   1.521       .  S
C2608      H2612   1.083       .  S
C2609      F2622   1.385       .  S
C2609      F2623   1.382       .  S
C2609      F2624   1.382       .  S
C2611      F2619   1.383       .  S
C2611      F2620   1.383       .  S
C2611      F2621   1.385       .  S
C2625      C2626   1.404       .  A
C2625      C2630   1.410       .  A
C2625      H2635   1.083       .  S
C2626      C2631   1.487       .  S
C2626      C2627   1.417       .  A
C2627      C2628   1.406       .  A
C2627      C2632   1.521       .  S
C2628      C2629   1.405       .  A
C2628      H2633   1.083       .  S
C2629      C2630   1.418       .  A
C2630      C2634   1.517       .  S
C2631      C2636   1.415       .  A
C2631      C2640   1.398       .  A
C2632      F2648   1.381       .  S
C2632      F2649   1.382       .  S
C2632      F2650   1.385       .  S
C2634      F2645   1.385       .  S
C2634      F2646   1.381       .  S
C2634      F2647   1.383       .  S
C2636      C2637   1.413       .  A
C2636      C2641   1.518       .  S
C2637      C2638   1.410       .  A
C2637      H2642   1.083       .  S
C2638      C2639   1.424       .  A
C2639      C2640   1.403       .  A
C2639      C2643   1.521       .  S
C2640      H2644   1.084       .  S
C2641      F2654   1.385       .  S
C2641      F2655   1.382       .  S
C2641      F2656   1.382       .  S
C2643      F2651   1.383       .  S
C2643      F2652   1.383       .  S
C2643      F2653   1.385       .  S
C2657      C2658   1.404       .  A
C2657      C2662   1.402       .  A
C2657      H2667   1.083       .  S
C2658      C2663   1.483       .  S
C2658      C2659   1.418       .  A
C2659      C2660   1.408       .  A
C2659      C2664   1.519       .  S
C2660      C2661   1.401       .  A
C2660      H2665   1.083       .  S
C2661      C2662   1.409       .  A
C2662      C2666   1.518       .  S
C2663      C2668   1.416       .  A
C2663      C2672   1.401       .  A
C2664      F2680   1.381       .  S
C2664      F2681   1.382       .  S
C2664      F2682   1.385       .  S
C2666      F2677   1.384       .  S
C2666      F2678   1.383       .  S
C2666      F2679   1.384       .  S
C2668      C2669   1.409       .  A
C2668      C2673   1.519       .  S
C2669      C2670   1.406       .  A
C2669      H2674   1.082       .  S
C2670      C2671   1.420       .  A
C2671      C2672   1.403       .  A
C2671      C2675   1.518       .  S
C2672      H2676   1.084       .  S
C2673      F2686   1.384       .  S
C2673      F2687   1.381       .  S
C2673      F2688   1.382       .  S
C2675      F2683   1.382       .  S
C2675      F2684   1.383       .  S
C2675      F2685   1.385       .  S
C2689      C2690   1.400       .  A
C2689      C2694   1.406       .  A
C2689      H2699   1.084       .  S
C2690      C2695   1.481       .  S
C2690      C2691   1.414       .  A
C2691      C2692   1.406       .  A
C2691      C2696   1.521       .  S
C2692      C2693   1.407       .  A
C2692      H2697   1.083       .  S
C2693      C2694   1.421       .  A
C2694      C2698   1.518       .  S
C2695      C2700   1.413       .  A
C2695      C2704   1.399       .  A
C2696      F2712   1.383       .  S
C2696      F2713   1.382       .  S
C2696      F2714   1.384       .  S
C2698      F2709   1.384       .  S
C2698      F2710   1.384       .  S
C2698      F2711   1.380       .  S
C2700      C2701   1.405       .  A
C2700      C2705   1.522       .  S
C2701      C2702   1.409       .  A
C2701      H2706   1.083       .  S
C2702      C2703   1.424       .  A
C2703      C2704   1.408       .  A
C2703      C2707   1.519       .  S
C2704      H2708   1.083       .  S
C2705      F2718   1.385       .  S
C2705      F2719   1.382       .  S
C2705      F2720   1.382       .  S
C2707      F2715   1.383       .  S
C2707      F2716   1.381       .  S
C2707      F2717   1.385       .  S
C2721      C2722   1.402       .  A
C2721      C2726   1.405       .  A
C2721      H2731   1.083       .  S
C2722      C2727   1.481       .  S
C2722      C2723   1.414       .  A
C2723      C2724   1.406       .  A
C2723      C2728   1.518       .  S
C2724      C2725   1.401       .  A
C2724      H2729   1.083       .  S
C2725      C2726   1.414       .  A
C2726      C2730   1.517       .  S
C2727      C2732   1.415       .  A
C2727      C2736   1.400       .  A
C2728      F2744   1.383       .  S
C2728      F2745   1.382       .  S
C2728      F2746   1.385       .  S
C2730      F2741   1.382       .  S
C2730      F2742   1.385       .  S
C2730      F2743   1.384       .  S
C2732      C2733   1.403       .  A
C2732      C2737   1.522       .  S
C2733      C2734   1.404       .  A
C2733      H2738   1.083       .  S
C2734      C2735   1.424       .  A
C2735      C2736   1.410       .  A
C2735      C2739   1.521       .  S
C2736      H2740   1.083       .  S
C2737      F2750   1.384       .  S
C2737      F2751   1.382       .  S
C2737      F2752   1.382       .  S
C2739      F2747   1.382       .  S
C2739      F2748   1.383       .  S
C2739      F2749   1.385       .  S
C2753      C2754   1.402       .  A
C2753      C2758   1.411       .  A
C2753      H2763   1.083       .  S
C2754      C2759   1.486       .  S
C2754      C2755   1.415       .  A
C2755      C2756   1.407       .  A
C2755      C2760   1.522       .  S
C2756      C2757   1.407       .  A
C2756      H2761   1.083       .  S
C2757      C2758   1.422       .  A
C2758      C2762   1.520       .  S
C2759      C2764   1.414       .  A
C2759      C2768   1.398       .  A
C2760      F2776   1.382       .  S
C2760      F2777   1.381       .  S
C2760      F2778   1.384       .  S
C2762      F2773   1.383       .  S
C2762      F2774   1.384       .  S
C2762      F2775   1.384       .  S
C2764      C2765   1.412       .  A
C2764      C2769   1.518       .  S
C2765      C2766   1.410       .  A
C2765      H2770   1.083       .  S
C2766      C2767   1.426       .  A
C2767      C2768   1.404       .  A
C2767      C2771   1.519       .  S
C2768      H2772   1.084       .  S
C2769      F2782   1.385       .  S
C2769      F2783   1.382       .  S
C2769      F2784   1.381       .  S
C2771      F2779   1.385       .  S
C2771      F2780   1.383       .  S
C2771      F2781   1.382       .  S
C2785      C2786   1.403       .  A
C2785      C2790   1.413       .  A
C2785      H2795   1.083       .  S
C2786      C2791   1.489       .  S
C2786      C2787   1.413       .  A
C2787      C2788   1.406       .  A
C2787      C2792   1.521       .  S
C2788      C2789   1.410       .  A
C2788      H2793   1.082       .  S
C2789      C2790   1.422       .  A
C2790      C2794   1.515       .  S
C2791      C2796   1.414       .  A
C2791      C2800   1.402       .  A
C2792      F2808   1.382       .  S
C2792      F2809   1.382       .  S
C2792      F2810   1.384       .  S
C2794      F2805   1.385       .  S
C2794      F2806   1.380       .  S
C2794      F2807   1.382       .  S
C2796      C2797   1.408       .  A
C2796      C2801   1.519       .  S
C2797      C2798   1.407       .  A
C2797      H2802   1.083       .  S
C2798      C2799   1.422       .  A
C2799      C2800   1.410       .  A
C2799      C2803   1.519       .  S
C2800      H2804   1.083       .  S
C2801      F2814   1.384       .  S
C2801      F2815   1.382       .  S
C2801      F2816   1.382       .  S
C2803      F2811   1.384       .  S
C2803      F2812   1.383       .  S
C2803      F2813   1.382       .  S
C2817      C2818   1.402       .  A
C2817      C2822   1.409       .  A
C2817      H2827   1.083       .  S
C2818      C2823   1.492       .  S
C2818      C2819   1.417       .  A
C2819      C2820   1.410       .  A
C2819      C2824   1.519       .  S
C2820      C2821   1.406       .  A
C2820      H2825   1.083       .  S
C2821      C2822   1.420       .  A
C2822      C2826   1.517       .  S
C2823      C2828   1.416       .  A
C2823      C2832   1.401       .  A
C2824      F2840   1.381       .  S
C2824      F2841   1.381       .  S
C2824      F2842   1.385       .  S
C2826      F2837   1.380       .  S
C2826      F2838   1.385       .  S
C2826      F2839   1.382       .  S
C2828      C2829   1.414       .  A
C2828      C2833   1.520       .  S
C2829      C2830   1.410       .  A
C2829      H2834   1.083       .  S
C2830      C2831   1.426       .  A
C2831      C2832   1.409       .  A
C2831      C2835   1.521       .  S
C2832      H2836   1.083       .  S
C2833      F2846   1.384       .  S
C2833      F2847   1.382       .  S
C2833      F2848   1.382       .  S
C2835      F2843   1.383       .  S
C2835      F2844   1.382       .  S
C2835      F2845   1.385       .  S
C2849      C2850   1.403       .  A
C2849      C2854   1.412       .  A
C2849      H2859   1.083       .  S
C2850      C2855   1.493       .  S
C2850      C2851   1.417       .  A
C2851      C2852   1.409       .  A
C2851      C2856   1.522       .  S
C2852      C2853   1.407       .  A
C2852      H2857   1.083       .  S
C2853      C2854   1.421       .  A
C2854      C2858   1.518       .  S
C2855      C2860   1.417       .  A
C2855      C2864   1.403       .  A
C2856      F2872   1.382       .  S
C2856      F2873   1.383       .  S
C2856      F2874   1.385       .  S
C2858      F2869   1.384       .  S
C2858      F2870   1.382       .  S
C2858      F2871   1.384       .  S
C2860      C2861   1.410       .  A
C2860      C2865   1.518       .  S
C2861      C2862   1.405       .  A
C2861      H2866   1.083       .  S
C2862      C2863   1.420       .  A
C2863      C2864   1.410       .  A
C2863      C2867   1.517       .  S
C2864      H2868   1.083       .  S
C2865      F2878   1.385       .  S
C2865      F2879   1.382       .  S
C2865      F2880   1.382       .  S
C2867      F2875   1.385       .  S
C2867      F2876   1.383       .  S
C2867      F2877   1.381       .  S
C2881      C2882   1.402       .  A
C2881      C2886   1.410       .  A
C2881      H2891   1.083       .  S
C2882      C2887   1.487       .  S
C2882      C2883   1.415       .  A
C2883      C2884   1.406       .  A
C2883      C2888   1.520       .  S
C2884      C2885   1.408       .  A
C2884      H2889   1.083       .  S
C2885      C2886   1.424       .  A
C2886      C2890   1.520       .  S
C2887      C2892   1.416       .  A
C2887      C2896   1.399       .  A
C2888      F2904   1.382       .  S
C2888      F2905   1.381       .  S
C2888      F2906   1.385       .  S
C2890      F2901   1.385       .  S
C2890      F2902   1.384       .  S
C2890      F2903   1.381       .  S
C2892      C2893   1.411       .  A
C2892      C2897   1.518       .  S
C2893      C2894   1.407       .  A
C2893      H2898   1.083       .  S
C2894      C2895   1.422       .  A
C2895      C2896   1.405       .  A
C2895      C2899   1.518       .  S
C2896      H2900   1.083       .  S
C2897      F2910   1.385       .  S
C2897      F2911   1.383       .  S
C2897      F2912   1.382       .  S
C2899      F2907   1.385       .  S
C2899      F2908   1.382       .  S
C2899      F2909   1.384       .  S
C2913      C2914   1.405       .  A
C2913      C2918   1.412       .  A
C2913      H2923   1.083       .  S
C2914      C2919   1.493       .  S
C2914      C2915   1.417       .  A
C2915      C2916   1.408       .  A
C2915      C2920   1.519       .  S
C2916      C2917   1.405       .  A
C2916      H2921   1.083       .  S
C2917      C2918   1.419       .  A
C2918      C2922   1.519       .  S
C2919      C2924   1.419       .  A
C2919      C2928   1.403       .  A
C2920      F2936   1.382       .  S
C2920      F2937   1.382       .  S
C2920      F2938   1.385       .  S
C2922      F2933   1.384       .  S
C2922      F2934   1.383       .  S
C2922      F2935   1.381       .  S
C2924      C2925   1.412       .  A
C2924      C2929   1.518       .  S
C2925      C2926   1.404       .  A
C2925      H2930   1.083       .  S
C2926      C2927   1.416       .  A
C2927      C2928   1.409       .  A
C2927      C2931   1.516       .  S
C2928      H2932   1.083       .  S
C2929      F2942   1.385       .  S
C2929      F2943   1.382       .  S
C2929      F2944   1.382       .  S
C2931      F2939   1.385       .  S
C2931      F2940   1.381       .  S
C2931      F2941   1.383       .  S
C2945      C2946   1.400       .  A
C2945      C2950   1.409       .  A
C2945      H2955   1.083       .  S
C2946      C2951   1.487       .  S
C2946      C2947   1.415       .  A
C2947      C2948   1.410       .  A
C2947      C2952   1.522       .  S
C2948      C2949   1.411       .  A
C2948      H2953   1.083       .  S
C2949      C2950   1.424       .  A
C2950      C2954   1.519       .  S
C2951      C2956   1.413       .  A
C2951      C2960   1.399       .  A
C2952      F2968   1.382       .  S
C2952      F2969   1.382       .  S
C2952      F2970   1.384       .  S
C2954      F2965   1.384       .  S
C2954      F2966   1.384       .  S
C2954      F2967   1.383       .  S
C2956      C2957   1.409       .  A
C2956      C2961   1.520       .  S
C2957      C2958   1.413       .  A
C2957      H2962   1.082       .  S
C2958      C2959   1.428       .  A
C2959      C2960   1.408       .  A
C2959      C2963   1.521       .  S
C2960      H2964   1.083       .  S
C2961      F2974   1.385       .  S
C2961      F2975   1.382       .  S
C2961      F2976   1.381       .  S
C2963      F2971   1.383       .  S
C2963      F2972   1.382       .  S
C2963      F2973   1.385       .  S
C2977      C2978   1.401       .  A
C2977      C2982   1.408       .  A
C2977      H2987   1.085       .  S
C2978      C2983   1.488       .  S
C2978      C2979   1.417       .  A
C2979      C2980   1.410       .  A
C2979      C2984   1.520       .  S
C2980      C2981   1.404       .  A
C2980      H2985   1.083       .  S
C2981      C2982   1.422       .  A
C2982      C2986   1.520       .  S
C2983      C2988   1.415       .  A
C2983      C2992   1.402       .  A
C2984      F3000   1.383       .  S
C2984      F3001   1.381       .  S
C2984      F3002   1.384       .  S
C2986      F2997   1.383       .  S
C2986      F2998   1.383       .  S
C2986      F2999   1.381       .  S
C2988      C2989   1.409       .  A
C2988      C2993   1.519       .  S
C2989      C2990   1.405       .  A
C2989      H2994   1.083       .  S
C2990      C2991   1.420       .  A
C2991      C2992   1.409       .  A
C2991      C2995   1.520       .  S
C2992      H2996   1.083       .  S
C2993      F3006   1.384       .  S
C2993      F3007   1.382       .  S
C2993      F3008   1.381       .  S
C2995      F3003   1.381       .  S
C2995      F3004   1.383       .  S
C2995      F3005   1.384       .  S
C3009      C3010   1.399       .  A
C3009      C3014   1.402       .  A
C3009      H3019   1.083       .  S
C3010      C3015   1.480       .  S
C3010      C3011   1.414       .  A
C3011      C3012   1.406       .  A
C3011      C3016   1.519       .  S
C3012      C3013   1.410       .  A
C3012      H3017   1.082       .  S
C3013      C3014   1.421       .  A
C3014      C3018   1.517       .  S
C3015      C3020   1.417       .  A
C3015      C3024   1.402       .  A
C3016      F3032   1.382       .  S
C3016      F3033   1.383       .  S
C3016      F3034   1.385       .  S
C3018      F3029   1.385       .  S
C3018      F3030   1.382       .  S
C3018      F3031   1.384       .  S
C3020      C3021   1.406       .  A
C3020      C3025   1.520       .  S
C3021      C3022   1.404       .  A
C3021      H3026   1.084       .  S
C3022      C3023   1.414       .  A
C3023      C3024   1.401       .  A
C3023      C3027   1.517       .  S
C3024      H3028   1.084       .  S
C3025      F3038   1.385   1_545  S
C3025      F3039   1.382       .  S
C3025      F3040   1.382       .  S
C3027      F3035   1.382       .  S
C3027      F3036   1.383       .  S
C3027      F3037   1.384       .  S
C3041      C3042   1.402       .  A
C3041      C3046   1.410       .  A
C3041      H3051   1.083       .  S
C3042      C3047   1.491   1_556  S
C3042      C3043   1.416       .  A
C3043      C3044   1.408       .  A
C3043      C3048   1.520   1_556  S
C3044      C3045   1.408       .  A
C3044      H3049   1.083       .  S
C3045      C3046   1.423       .  A
C3046      C3050   1.519       .  S
C3047      C3052   1.416       .  A
C3047      C3056   1.401       .  A
C3048      F3064   1.382       .  S
C3048      F3065   1.382       .  S
C3048      F3066   1.385       .  S
C3050      F3061   1.384       .  S
C3050      F3062   1.384       .  S
C3050      F3063   1.381       .  S
C3052      C3053   1.408       .  A
C3052      C3057   1.519       .  S
C3053      C3054   1.406       .  A
C3053      H3058   1.082       .  S
C3054      C3055   1.424       .  A
C3055      C3056   1.410       .  A
C3055      C3059   1.519       .  S
C3056      H3060   1.083       .  S
C3057      F3070   1.385       .  S
C3057      F3071   1.382   1_554  S
C3057      F3072   1.382       .  S
C3059      F3067   1.382       .  S
C3059      F3068   1.383       .  S
C3059      F3069   1.385       .  S
C3073      C3074   1.402       .  A
C3073      C3078   1.412       .  A
C3073      H3083   1.083       .  S
C3074      C3079   1.486       .  S
C3074      C3075   1.413       .  A
C3075      C3076   1.404       .  A
C3075      C3080   1.522       .  S
C3076      C3077   1.411       .  A
C3076      H3081   1.082       .  S
C3077      C3078   1.425       .  A
C3078      C3082   1.519       .  S
C3079      C3084   1.416       .  A
C3079      C3088   1.402       .  A
C3080      F3096   1.382       .  S
C3080      F3097   1.382       .  S
C3080      F3098   1.385       .  S
C3082      F3093   1.383       .  S
C3082      F3094   1.385       .  S
C3082      F3095   1.383       .  S
C3084      C3085   1.410       .  A
C3084      C3089   1.518       .  S
C3085      C3086   1.404       .  A
C3085      H3090   1.083       .  S
C3086      C3087   1.416       .  A
C3087      C3088   1.404       .  A
C3087      C3091   1.519       .  S
C3088      H3092   1.083       .  S
C3089      F3102   1.385       .  S
C3089      F3103   1.382       .  S
C3089      F3104   1.382       .  S
C3091      F3099   1.381       .  S
C3091      F3100   1.383       .  S
C3091      F3101   1.385       .  S
C3105      C3106   1.398       .  A
C3105      C3110   1.405       .  A
C3105      H3115   1.083       .  S
C3106      C3111   1.487       .  S
C3106      C3107   1.417       .  A
C3107      C3108   1.409       .  A
C3107      C3112   1.518       .  S
C3108      C3109   1.405       .  A
C3108      H3113   1.082       .  S
C3109      C3110   1.426       .  A
C3110      C3114   1.522       .  S
C3111      C3116   1.415       .  A
C3111      C3120   1.401       .  A
C3112      F3128   1.382       .  S
C3112      F3129   1.382       .  S
C3112      F3130   1.385       .  S
C3114      F3125   1.385       .  S
C3114      F3126   1.382       .  S
C3114      F3127   1.383       .  S
C3116      C3117   1.408       .  A
C3116      C3121   1.519       .  S
C3117      C3118   1.407       .  A
C3117      H3122   1.083       .  S
C3118      C3119   1.422       .  A
C3119      C3120   1.408       .  A
C3119      C3123   1.519       .  S
C3120      H3124   1.083       .  S
C3121      F3134   1.385       .  S
C3121      F3135   1.382       .  S
C3121      F3136   1.382       .  S
C3123      F3131   1.385       .  S
C3123      F3132   1.383       .  S
C3123      F3133   1.382       .  S
C3137      C3138   1.402       .  A
C3137      C3142   1.412       .  A
C3137      H3147   1.083       .  S
C3138      C3143   1.488       .  S
C3138      C3139   1.414       .  A
C3139      C3140   1.403       .  A
C3139      C3144   1.520       .  S
C3140      C3141   1.408       .  A
C3140      H3145   1.083       .  S
C3141      C3142   1.424       .  A
C3142      C3146   1.519       .  S
C3143      C3148   1.418       .  A
C3143      C3152   1.403       .  A
C3144      F3160   1.382       .  S
C3144      F3161   1.383       .  S
C3144      F3162   1.385       .  S
C3146      F3157   1.385       .  S
C3146      F3158   1.382       .  S
C3146      F3159   1.383       .  S
C3148      C3149   1.407       .  A
C3148      C3153   1.520       .  S
C3149      C3150   1.403       .  A
C3149      H3154   1.083       .  S
C3150      C3151   1.417       .  A
C3151      C3152   1.410       .  A
C3151      C3155   1.516       .  S
C3152      H3156   1.083       .  S
C3153      F3166   1.384       .  S
C3153      F3167   1.382       .  S
C3153      F3168   1.383       .  S
C3155      F3163   1.385       .  S
C3155      F3164   1.383       .  S
C3155      F3165   1.382       .  S
C3169      C3170   1.400       .  A
C3169      C3174   1.407       .  A
C3169      H3179   1.083       .  S
C3170      C3175   1.491       .  S
C3170      C3171   1.417       .  A
C3171      C3172   1.411       .  A
C3171      C3176   1.518       .  S
C3172      C3173   1.405       .  A
C3172      H3177   1.082       .  S
C3173      C3174   1.425       .  A
C3174      C3178   1.521       .  S
C3175      C3180   1.416       .  A
C3175      C3184   1.398       .  A
C3176      F3192   1.382       .  S
C3176      F3193   1.382       .  S
C3176      F3194   1.385       .  S
C3178      F3189   1.385       .  S
C3178      F3190   1.383       .  S
C3178      F3191   1.383       .  S
C3180      C3181   1.412       .  A
C3180      C3185   1.518       .  S
C3181      C3182   1.409       .  A
C3181      H3186   1.083       .  S
C3182      C3183   1.429       .  A
C3183      C3184   1.407       .  A
C3183      C3187   1.522       .  S
C3184      H3188   1.083       .  S
C3185      F3198   1.385       .  S
C3185      F3199   1.382       .  S
C3185      F3200   1.381       .  S
C3187      F3195   1.383       .  S
C3187      F3196   1.383       .  S
C3187      F3197   1.385       .  S
C3201      C3202   1.403       .  A
C3201      C3206   1.411       .  A
C3201      H3211   1.083       .  S
C3202      C3207   1.491       .  S
C3202      C3203   1.418       .  A
C3203      C3204   1.410       .  A
C3203      C3208   1.520       .  S
C3204      C3205   1.404       .  A
C3204      H3209   1.083       .  S
C3205      C3206   1.417       .  A
C3206      C3210   1.516       .  S
C3207      C3212   1.419       .  A
C3207      C3216   1.404       .  A
C3208      F3224   1.382       .  S
C3208      F3225   1.382       .  S
C3208      F3226   1.385       .  S
C3210      F3221   1.385       .  S
C3210      F3222   1.383       .  S
C3210      F3223   1.382       .  S
C3212      C3213   1.412       .  A
C3212      C3217   1.517       .  S
C3213      C3214   1.402       .  A
C3213      H3218   1.083       .  S
C3214      C3215   1.412       .  A
C3215      C3216   1.406       .  A
C3215      C3219   1.518       .  S
C3216      H3220   1.083       .  S
C3217      F3230   1.385       .  S
C3217      F3231   1.382       .  S
C3217      F3232   1.381       .  S
C3219      F3227   1.384       .  S
C3219      F3228   1.383       .  S
C3219      F3229   1.384       .  S
C3233      C3234   1.402       .  A
C3233      C3238   1.406       .  A
C3233      H3243   1.083       .  S
C3234      C3239   1.481       .  S
C3234      C3235   1.414       .  A
C3235      C3236   1.407       .  A
C3235      C3240   1.520       .  S
C3236      C3237   1.404       .  A
C3236      H3241   1.083       .  S
C3237      C3238   1.416       .  A
C3238      C3242   1.518       .  S
C3239      C3244   1.416       .  A
C3239      C3248   1.403       .  A
C3240      F3256   1.382       .  S
C3240      F3257   1.382       .  S
C3240      F3258   1.384       .  S
C3242      F3253   1.385       .  S
C3242      F3254   1.382       .  S
C3242      F3255   1.384       .  S
C3244      C3245   1.404       .  A
C3244      C3249   1.521       .  S
C3245      C3246   1.403       .  A
C3245      H3250   1.083       .  S
C3246      C3247   1.415       .  A
C3247      C3248   1.407       .  A
C3247      C3251   1.517       .  S
C3248      H3252   1.083       .  S
C3249      F3262   1.385       .  S
C3249      F3263   1.382       .  S
C3249      F3264   1.382       .  S
C3251      F3259   1.385       .  S
C3251      F3260   1.383       .  S
C3251      F3261   1.382       .  S
C3265      C3266   1.402       .  A
C3265      C3270   1.412       .  A
C3265      H3275   1.083       .  S
C3266      C3271   1.487       .  S
C3266      C3267   1.416       .  A
C3267      C3268   1.406       .  A
C3267      C3272   1.521       .  S
C3268      C3269   1.406       .  A
C3268      H3273   1.083       .  S
C3269      C3270   1.421       .  A
C3270      C3274   1.518       .  S
C3271      C3276   1.415       .  A
C3271      C3280   1.404       .  A
C3272      F3288   1.382       .  S
C3272      F3289   1.382       .  S
C3272      F3290   1.385       .  S
C3274      F3285   1.382       .  S
C3274      F3286   1.384       .  S
C3274      F3287   1.384       .  S
C3276      C3277   1.407       .  A
C3276      C3281   1.519       .  S
C3277      C3278   1.405       .  A
C3277      H3282   1.083       .  S
C3278      C3279   1.416       .  A
C3279      C3280   1.410       .  A
C3279      C3283   1.517       .  S
C3280      H3284   1.083       .  S
C3281      F3294   1.384       .  S
C3281      F3295   1.382       .  S
C3281      F3296   1.382       .  S
C3283      F3291   1.384       .  S
C3283      F3292   1.384       .  S
C3283      F3293   1.381       .  S
C3297      C3298   1.404       .  A
C3297      C3302   1.409       .  A
C3297      H3307   1.083       .  S
C3298      C3303   1.485       .  S
C3298      C3299   1.416       .  A
C3299      C3300   1.404       .  A
C3299      C3304   1.519       .  S
C3300      C3301   1.403       .  A
C3300      H3305   1.083       .  S
C3301      C3302   1.417       .  A
C3302      C3306   1.519       .  S
C3303      C3308   1.416       .  A
C3303      C3312   1.403       .  A
C3304      F3320   1.382       .  S
C3304      F3321   1.382       .  S
C3304      F3322   1.385       .  S
C3306      F3317   1.383       .  S
C3306      F3318   1.385       .  S
C3306      F3319   1.383       .  S
C3308      C3309   1.408       .  A
C3308      C3313   1.518       .  S
C3309      C3310   1.402       .  A
C3309      H3314   1.083       .  S
C3310      C3311   1.413       .  A
C3311      C3312   1.406       .  A
C3311      C3315   1.517       .  S
C3312      H3316   1.083       .  S
C3313      F3326   1.384       .  S
C3313      F3327   1.382       .  S
C3313      F3328   1.382       .  S
C3315      F3323   1.382       .  S
C3315      F3324   1.383       .  S
C3315      F3325   1.385       .  S
C3329      C3330   1.401       .  A
C3329      C3334   1.407       .  A
C3329      H3339   1.083       .  S
C3330      C3335   1.489       .  S
C3330      C3331   1.415       .  A
C3331      C3332   1.411       .  A
C3331      C3336   1.518       .  S
C3332      C3333   1.407       .  A
C3332      H3337   1.083       .  S
C3333      C3334   1.422       .  A
C3334      C3338   1.521       .  S
C3335      C3340   1.418       .  A
C3335      C3344   1.402       .  A
C3336      F3352   1.382       .  S
C3336      F3353   1.382       .  S
C3336      F3354   1.384       .  S
C3338      F3349   1.382       .  S
C3338      F3350   1.385       .  S
C3338      F3351   1.384       .  S
C3340      C3341   1.409       .  A
C3340      C3345   1.519       .  S
C3341      C3342   1.402       .  A
C3341      H3346   1.084       .  S
C3342      C3343   1.418       .  A
C3343      C3344   1.406       .  A
C3343      C3347   1.517       .  S
C3344      H3348   1.084       .  S
C3345      F3358   1.385       .  S
C3345      F3359   1.382       .  S
C3345      F3360   1.382       .  S
C3347      F3355   1.383       .  S
C3347      F3356   1.382       .  S
C3347      F3357   1.384       .  S
C3361      C3362   1.401       .  A
C3361      C3366   1.411       .  A
C3361      H3371   1.083       .  S
C3362      C3367   1.497       .  S
C3362      C3363   1.416       .  A
C3363      C3364   1.412       .  A
C3363      C3368   1.519       .  S
C3364      C3365   1.411       .  A
C3364      H3369   1.082       .  S
C3365      C3366   1.428       .  A
C3366      C3370   1.520       .  S
C3367      C3372   1.417       .  A
C3367      C3376   1.402       .  A
C3368      F3384   1.382       .  S
C3368      F3385   1.382       .  S
C3368      F3386   1.385       .  S
C3370      F3381   1.385       .  S
C3370      F3382   1.382       .  S
C3370      F3383   1.383       .  S
C3372      C3373   1.414       .  A
C3372      C3377   1.520       .  S
C3373      C3374   1.408       .  A
C3373      H3378   1.083       .  S
C3374      C3375   1.422       .  A
C3375      C3376   1.411       .  A
C3375      C3379   1.516       .  S
C3376      H3380   1.083       .  S
C3377      F3390   1.384       .  S
C3377      F3391   1.382       .  S
C3377      F3392   1.383       .  S
C3379      F3387   1.384       .  S
C3379      F3388   1.383       .  S
C3379      F3389   1.379       .  S
C3393      C3394   1.403       .  A
C3393      C3398   1.408       .  A
C3393      H3403   1.085       .  S
C3394      C3399   1.492       .  S
C3394      C3395   1.417       .  A
C3395      C3396   1.411       .  A
C3395      C3400   1.519       .  S
C3396      C3397   1.404       .  A
C3396      H3401   1.083       .  S
C3397      C3398   1.419       .  A
C3398      C3402   1.519       .  S
C3399      C3404   1.418       .  A
C3399      C3408   1.403       .  A
C3400      F3416   1.382       .  S
C3400      F3417   1.382       .  S
C3400      F3418   1.385       .  S
C3402      F3413   1.383       .  S
C3402      F3414   1.384       .  S
C3402      F3415   1.381       .  S
C3404      C3405   1.411       .  A
C3404      C3409   1.519       .  S
C3405      C3406   1.404       .  A
C3405      H3410   1.083       .  S
C3406      C3407   1.418       .  A
C3407      C3408   1.410       .  A
C3407      C3411   1.518       .  S
C3408      H3412   1.083       .  S
C3409      F3422   1.384       .  S
C3409      F3423   1.382       .  S
C3409      F3424   1.382       .  S
C3411      F3419   1.385       .  S
C3411      F3420   1.384       .  S
C3411      F3421   1.382       .  S
C3425      C3426   1.402       .  A
C3425      C3430   1.413       .  A
C3425      H3435   1.083       .  S
C3426      C3431   1.489       .  S
C3426      C3427   1.412       .  A
C3427      C3428   1.405       .  A
C3427      C3432   1.518       .  S
C3428      C3429   1.408       .  A
C3428      H3433   1.083       .  S
C3429      C3430   1.426       .  A
C3430      C3434   1.519       .  S
C3431      C3436   1.414       .  A
C3431      C3440   1.402       .  A
C3432      F3448   1.383       .  S
C3432      F3449   1.382       .  S
C3432      F3450   1.384       .  S
C3434      F3445   1.382       .  S
C3434      F3446   1.384       .  S
C3434      F3447   1.383       .  S
C3436      C3437   1.404       .  A
C3436      C3441   1.521       .  S
C3437      C3438   1.408       .  A
C3437      H3442   1.082       .  S
C3438      C3439   1.426       .  A
C3439      C3440   1.414       .  A
C3439      C3443   1.518       .  S
C3440      H3444   1.083       .  S
C3441      F3454   1.385       .  S
C3441      F3455   1.382       .  S
C3441      F3456   1.383       .  S
C3443      F3451   1.384       .  S
C3443      F3452   1.382       .  S
C3443      F3453   1.384   1_565  S
C3457      C3458   1.402       .  A
C3457      C3462   1.409       .  A
C3457      H3467   1.083       .  S
C3458      C3463   1.482       .  S
C3458      C3459   1.415       .  A
C3459      C3460   1.402       .  A
C3459      C3464   1.522       .  S
C3460      C3461   1.406       .  A
C3460      H3465   1.082       .  S
C3461      C3462   1.420       .  A
C3462      C3466   1.517       .  S
C3463      C3468   1.416       .  A
C3463      C3472   1.401       .  A
C3464      F3480   1.382       .  S
C3464      F3481   1.382       .  S
C3464      F3482   1.385       .  S
C3466      F3477   1.384       .  S
C3466      F3478   1.385       .  S
C3466      F3479   1.382       .  S
C3468      C3469   1.409       .  A
C3468      C3473   1.518       .  S
C3469      C3470   1.403       .  A
C3469      H3474   1.083       .  S
C3470      C3471   1.414       .  A
C3471      C3472   1.403       .  A
C3471      C3475   1.518       .  S
C3472      H3476   1.083       .  S
C3473      F3486   1.384       .  S
C3473      F3487   1.382       .  S
C3473      F3488   1.382       .  S
C3475      F3483   1.381       .  S
C3475      F3484   1.383       .  S
C3475      F3485   1.385       .  S
C3489      C3490   1.404       .  A
C3489      C3494   1.409       .  A
C3489      H3499   1.083       .  S
C3490      C3495   1.488       .  S
C3490      C3491   1.415       .  A
C3491      C3492   1.406       .  A
C3491      C3496   1.521       .  S
C3492      C3493   1.407       .  A
C3492      H3497   1.083       .  S
C3493      C3494   1.417       .  A
C3494      C3498   1.516       .  S
C3495      C3500   1.415       .  A
C3495      C3504   1.401       .  A
C3496      F3512   1.382       .  S
C3496      F3513   1.382       .  S
C3496      F3514   1.385       .  S
C3498      F3509   1.384       .  S
C3498      F3510   1.379       .  S
C3498      F3511   1.384       .  S
C3500      C3501   1.410       .  A
C3500      C3505   1.518       .  S
C3501      C3502   1.406       .  A
C3501      H3506   1.083       .  S
C3502      C3503   1.423       .  A
C3503      C3504   1.407       .  A
C3503      C3507   1.521       .  S
C3504      H3508   1.083       .  S
C3505      F3518   1.384       .  S
C3505      F3519   1.382       .  S
C3505      F3520   1.382       .  S
C3507      F3515   1.382       .  S
C3507      F3516   1.384       .  S
C3507      F3517   1.385   1_565  S
C3521      C3522   1.397       .  A
C3521      C3526   1.408       .  A
C3521      H3531   1.083       .  S
C3522      C3527   1.481       .  S
C3522      C3523   1.410       .  A
C3523      C3524   1.406       .  A
C3523      C3528   1.521       .  S
C3524      C3525   1.414       .  A
C3524      H3529   1.081       .  S
C3525      C3526   1.431       .  A
C3526      C3530   1.520       .  S
C3527      C3532   1.413       .  A
C3527      C3536   1.400       .  A
C3528      F3544   1.382       .  S
C3528      F3545   1.382       .  S
C3528      F3546   1.384       .  S
C3530      F3541   1.384       .  S
C3530      F3542   1.385       .  S
C3530      F3543   1.383       .  S
C3532      C3533   1.406       .  A
C3532      C3537   1.520       .  S
C3533      C3534   1.407       .  A
C3533      H3538   1.083       .  S
C3534      C3535   1.422       .  A
C3535      C3536   1.407       .  A
C3535      C3539   1.520       .  S
C3536      H3540   1.083       .  S
C3537      F3550   1.384       .  S
C3537      F3551   1.382       .  S
C3537      F3552   1.382       .  S
C3539      F3547   1.383       .  S
C3539      F3548   1.383       .  S
C3539      F3549   1.385       .  S
C3553      C3554   1.402       .  A
C3553      C3558   1.409       .  A
C3553      H3563   1.083       .  S
C3554      C3559   1.482       .  S
C3554      C3555   1.415       .  A
C3555      C3556   1.404       .  A
C3555      C3560   1.522       .  S
C3556      C3557   1.406       .  A
C3556      H3561   1.082       .  S
C3557      C3558   1.420       .  A
C3558      C3562   1.518       .  S
C3559      C3564   1.415       .  A
C3559      C3568   1.400       .  A
C3560      F3576   1.382       .  S
C3560      F3577   1.381       .  S
C3560      F3578   1.385       .  S
C3562      F3573   1.383       .  S
C3562      F3574   1.385       .  S
C3562      F3575   1.383       .  S
C3564      C3565   1.409       .  A
C3564      C3569   1.520       .  S
C3565      C3566   1.404       .  A
C3565      H3570   1.083       .  S
C3566      C3567   1.418       .  A
C3567      C3568   1.406       .  A
C3567      C3571   1.516       .  S
C3568      H3572   1.083       .  S
C3569      F3582   1.384       .  S
C3569      F3583   1.382       .  S
C3569      F3584   1.381       .  S
C3571      F3579   1.382       .  S
C3571      F3580   1.381       .  S
C3571      F3581   1.385       .  S
C3585      C3586   1.402       .  A
C3585      C3590   1.406       .  A
C3585      H3595   1.083       .  S
C3586      C3591   1.484       .  S
C3586      C3587   1.416       .  A
C3587      C3588   1.409       .  A
C3587      C3592   1.519       .  S
C3588      C3589   1.403       .  A
C3588      H3593   1.083       .  S
C3589      C3590   1.416       .  A
C3590      C3594   1.518       .  S
C3591      C3596   1.415       .  A
C3591      C3600   1.402       .  A
C3592      F3608   1.382       .  S
C3592      F3609   1.381       .  S
C3592      F3610   1.384       .  S
C3594      F3605   1.383       .  S
C3594      F3606   1.385       .  S
C3594      F3607   1.381       .  S
C3596      C3597   1.407       .  A
C3596      C3601   1.519       .  S
C3597      C3598   1.406       .  A
C3597      H3602   1.083       .  S
C3598      C3599   1.420       .  A
C3599      C3600   1.408       .  A
C3599      C3603   1.519       .  S
C3600      H3604   1.083       .  S
C3601      F3614   1.385       .  S
C3601      F3615   1.382       .  S
C3601      F3616   1.381       .  S
C3603      F3611   1.382       .  S
C3603      F3612   1.383       .  S
C3603      F3613   1.385       .  S
C3617      C3618   1.402       .  A
C3617      C3622   1.411       .  A
C3617      H3627   1.083       .  S
C3618      C3623   1.482       .  S
C3618      C3619   1.414       .  A
C3619      C3620   1.402       .  A
C3619      C3624   1.522       .  S
C3620      C3621   1.405       .  A
C3620      H3625   1.083       .  S
C3621      C3622   1.421       .  A
C3622      C3626   1.519       .  S
C3623      C3628   1.414       .  A
C3623      C3632   1.401       .  A
C3624      F3640   1.382       .  S
C3624      F3641   1.382       .  S
C3624      F3642   1.384       .  S
C3626      F3637   1.385       .  S
C3626      F3638   1.382       .  S
C3626      F3639   1.384       .  S
C3628      C3629   1.405       .  A
C3628      C3633   1.520       .  S
C3629      C3630   1.405       .  A
C3629      H3634   1.083       .  S
C3630      C3631   1.420       .  A
C3631      C3632   1.408       .  A
C3631      C3635   1.519       .  S
C3632      H3636   1.083       .  S
C3633      F3646   1.384       .  S
C3633      F3647   1.382       .  S
C3633      F3648   1.383       .  S
C3635      F3643   1.384       .  S
C3635      F3644   1.383       .  S
C3635      F3645   1.382       .  S
C3649      C3650   1.400       .  A
C3649      C3654   1.406       .  A
C3649      H3659   1.083       .  S
C3650      C3655   1.482       .  S
C3650      C3651   1.415       .  A
C3651      C3652   1.407       .  A
C3651      C3656   1.519       .  S
C3652      C3653   1.403       .  A
C3652      H3657   1.083       .  S
C3653      C3654   1.418       .  A
C3654      C3658   1.517       .  S
C3655      C3660   1.414       .  A
C3655      C3664   1.404       .  A
C3656      F3672   1.382       .  S
C3656      F3673   1.382       .  S
C3656      F3674   1.384       .  S
C3658      F3669   1.380       .  S
C3658      F3670   1.384       .  S
C3658      F3671   1.384       .  S
C3660      C3661   1.402       .  A
C3660      C3665   1.520       .  S
C3661      C3662   1.404       .  A
C3661      H3666   1.084       .  S
C3662      C3663   1.416       .  A
C3663      C3664   1.409       .  A
C3663      C3667   1.516       .  S
C3664      H3668   1.083       .  S
C3665      F3678   1.385       .  S
C3665      F3679   1.382       .  S
C3665      F3680   1.382       .  S
C3667      F3675   1.382       .  S
C3667      F3676   1.382       .  S
C3667      F3677   1.385       .  S
C3681      C3682   1.398       .  A
C3681      C3686   1.407       .  A
C3681      H3691   1.083       .  S
C3682      C3687   1.481       .  S
C3682      C3683   1.414       .  A
C3683      C3684   1.404       .  A
C3683      C3688   1.522       .  S
C3684      C3685   1.407       .  A
C3684      H3689   1.079       .  S
C3685      C3686   1.427       .  A
C3686      C3690   1.521       .  S
C3687      C3692   1.415       .  A
C3687      C3696   1.400       .  A
C3688      F3704   1.382       .  S
C3688      F3705   1.383       .  S
C3688      F3706   1.384       .  S
C3690      F3701   1.384       .  S
C3690      F3702   1.385       .  S
C3690      F3703   1.382       .  S
C3692      C3693   1.403       .  A
C3692      C3697   1.520       .  S
C3693      C3694   1.404       .  A
C3693      H3698   1.081       .  S
C3694      C3695   1.422       .  A
C3695      C3696   1.406       .  A
C3695      C3699   1.519       .  S
C3696      H3700   1.083       .  S
C3697      F3710   1.384       .  S
C3697      F3711   1.382       .  S
C3697      F3712   1.383       .  S
C3699      F3707   1.385       .  S
C3699      F3708   1.383       .  S
C3699      F3709   1.382       .  S
C3713      C3714   1.402       .  A
C3713      C3718   1.404       .  A
C3713      H3723   1.083       .  S
C3714      C3719   1.481       .  S
C3714      C3715   1.417       .  A
C3715      C3716   1.407       .  A
C3715      C3720   1.519       .  S
C3716      C3717   1.401       .  A
C3716      H3721   1.083       .  S
C3717      C3718   1.415       .  A
C3718      C3722   1.519       .  S
C3719      C3724   1.414       .  A
C3719      C3728   1.397       .  A
C3720      F3736   1.382       .  S
C3720      F3737   1.382       .  S
C3720      F3738   1.384       .  S
C3722      F3733   1.384       .  S
C3722      F3734   1.382       .  S
C3722      F3735   1.382       .  S
C3724      C3725   1.409       .  A
C3724      C3729   1.519       .  S
C3725      C3726   1.409       .  A
C3725      H3730   1.083       .  S
C3726      C3727   1.425       .  A
C3727      C3728   1.403       .  A
C3727      C3731   1.520       .  S
C3728      H3732   1.084       .  S
C3729      F3742   1.385       .  S
C3729      F3743   1.382       .  S
C3729      F3744   1.382       .  S
C3731      F3739   1.382       .  S
C3731      F3740   1.383       .  S
C3731      F3741   1.385       .  S
C3745      C3746   1.403       .  A
C3745      C3750   1.412       .  A
C3745      H3755   1.083       .  S
C3746      C3751   1.496       .  S
C3746      C3747   1.418       .  A
C3747      C3748   1.411       .  A
C3747      C3752   1.519       .  S
C3748      C3749   1.405       .  A
C3748      H3753   1.083       .  S
C3749      C3750   1.421       .  A
C3750      C3754   1.518       .  S
C3751      C3756   1.417       .  A
C3751      C3760   1.404       .  A
C3752      F3768   1.382       .  S
C3752      F3769   1.382       .  S
C3752      F3770   1.385       .  S
C3754      F3765   1.382       .  S
C3754      F3766   1.385       .  S
C3754      F3767   1.383       .  S
C3756      C3757   1.411       .  A
C3756      C3761   1.519       .  S
C3757      C3758   1.405       .  A
C3757      H3762   1.083       .  S
C3758      C3759   1.420       .  A
C3759      C3760   1.413       .  A
C3759      C3763   1.518       .  S
C3760      H3764   1.083       .  S
C3761      F3774   1.384       .  S
C3761      F3775   1.382       .  S
C3761      F3776   1.382       .  S
C3763      F3771   1.381       .  S
C3763      F3772   1.383       .  S
C3763      F3773   1.385       .  S
C3777      C3778   1.400       .  A
C3777      C3782   1.403       .  A
C3777      H3787   1.083       .  S
C3778      C3783   1.482       .  S
C3778      C3779   1.417       .  A
C3779      C3780   1.408       .  A
C3779      C3784   1.518       .  S
C3780      C3781   1.401       .  A
C3780      H3785   1.083       .  S
C3781      C3782   1.415       .  A
C3782      C3786   1.518       .  S
C3783      C3788   1.415       .  A
C3783      C3792   1.400       .  A
C3784      F3800   1.382       .  S
C3784      F3801   1.382       .  S
C3784      F3802   1.385       .  S
C3786      F3797   1.383       .  S
C3786      F3798   1.385       .  S
C3786      F3799   1.382       .  S
C3788      C3789   1.403       .  A
C3788      C3793   1.522       .  S
C3789      C3790   1.406       .  A
C3789      H3794   1.083       .  S
C3790      C3791   1.424       .  A
C3791      C3792   1.410       .  A
C3791      C3795   1.519       .  S
C3792      H3796   1.083       .  S
C3793      F3806   1.384       .  S
C3793      F3807   1.382       .  S
C3793      F3808   1.383       .  S
C3795      F3803   1.385       .  S
C3795      F3804   1.382       .  S
C3795      F3805   1.384       .  S
C3809      C3810   1.404       .  A
C3809      C3814   1.410       .  A
C3809      H3819   1.083       .  S
C3810      C3815   1.486       .  S
C3810      C3811   1.416       .  A
C3811      C3812   1.404       .  A
C3811      C3816   1.520       .  S
C3812      C3813   1.403       .  A
C3812      H3817   1.084       .  S
C3813      C3814   1.416       .  A
C3814      C3818   1.517       .  S
C3815      C3820   1.414       .  A
C3815      C3824   1.399       .  A
C3816      F3832   1.382       .  S
C3816      F3833   1.382       .  S
C3816      F3834   1.385       .  S
C3818      F3829   1.383       .  S
C3818      F3830   1.384       .  S
C3818      F3831   1.383       .  S
C3820      C3821   1.408       .  A
C3820      C3825   1.520       .  S
C3821      C3822   1.409       .  A
C3821      H3826   1.082       .  S
C3822      C3823   1.428       .  A
C3823      C3824   1.409       .  A
C3823      C3827   1.520       .  S
C3824      H3828   1.083       .  S
C3825      F3838   1.384       .  S
C3825      F3839   1.382       .  S
C3825      F3840   1.382       .  S
C3827      F3835   1.385       .  S
C3827      F3836   1.384       .  S
C3827      F3837   1.383       .  S
C3841      C3842   1.398       .  A
C3841      C3846   1.405       .  A
C3841      H3851   1.083       .  S
C3842      C3847   1.481       .  S
C3842      C3843   1.412       .  A
C3843      C3844   1.406       .  A
C3843      C3848   1.519       .  S
C3844      C3845   1.409       .  A
C3844      H3849   1.083       .  S
C3845      C3846   1.426       .  A
C3846      C3850   1.521       .  S
C3847      C3852   1.415       .  A
C3847      C3856   1.402       .  A
C3848      F3864   1.382       .  S
C3848      F3865   1.383       .  S
C3848      F3866   1.385       .  S
C3850      F3861   1.385       .  S
C3850      F3862   1.383       .  S
C3850      F3863   1.383       .  S
C3852      C3853   1.403       .  A
C3852      C3857   1.523       .  S
C3853      C3854   1.405       .  A
C3853      H3858   1.083       .  S
C3854      C3855   1.419       .  A
C3855      C3856   1.410       .  A
C3855      C3859   1.518       .  S
C3856      H3860   1.083       .  S
C3857      F3870   1.384       .  S
C3857      F3871   1.382       .  S
C3857      F3872   1.382       .  S
C3859      F3867   1.385       .  S
C3859      F3868   1.384       .  S
C3859      F3869   1.382       .  S
C3873      C3874   1.401       .  A
C3873      C3878   1.413       .  A
C3873      H3883   1.083       .  S
C3874      C3879   1.490       .  S
C3874      C3875   1.413       .  A
C3875      C3876   1.407       .  A
C3875      C3880   1.520       .  S
C3876      C3877   1.410       .  A
C3876      H3881   1.082       .  S
C3877      C3878   1.428       .  A
C3878      C3882   1.520       .  S
C3879      C3884   1.416       .  A
C3879      C3888   1.402       .  A
C3880      F3896   1.382       .  S
C3880      F3897   1.383       .  S
C3880      F3898   1.384       .  S
C3882      F3893   1.385       .  S
C3882      F3894   1.384       .  S
C3882      F3895   1.382       .  S
C3884      C3885   1.407       .  A
C3884      C3889   1.520       .  S
C3885      C3886   1.406       .  A
C3885      H3890   1.081       .  S
C3886      C3887   1.423       .  A
C3887      C3888   1.412       .  A
C3887      C3891   1.517       .  S
C3888      H3892   1.083       .  S
C3889      F3902   1.385       .  S
C3889      F3903   1.382       .  S
C3889      F3904   1.382       .  S
C3891      F3899   1.384       .  S
C3891      F3900   1.381       .  S
C3891      F3901   1.385       .  S
C3905      C3906   1.400       .  A
C3905      C3910   1.406       .  A
C3905      H3915   1.084       .  S
C3906      C3911   1.488       .  S
C3906      C3907   1.415       .  A
C3907      C3908   1.411       .  A
C3907      C3912   1.517       .  S
C3908      C3909   1.406       .  A
C3908      H3913   1.083       .  S
C3909      C3910   1.421       .  A
C3910      C3914   1.517       .  S
C3911      C3916   1.417       .  A
C3911      C3920   1.403       .  A
C3912      F3928   1.383       .  S
C3912      F3929   1.383       .  S
C3912      F3930   1.384       .  S
C3914      F3925   1.385       .  S
C3914      F3926   1.381       .  S
C3914      F3927   1.381       .  S
C3916      C3917   1.405       .  A
C3916      C3921   1.521       .  S
C3917      C3918   1.403       .  A
C3917      H3922   1.083       .  S
C3918      C3919   1.420       .  A
C3919      C3920   1.412       .  A
C3919      C3923   1.518       .  S
C3920      H3924   1.083       .  S
C3921      F3934   1.385       .  S
C3921      F3935   1.382       .  S
C3921      F3936   1.382       .  S
C3923      F3931   1.384       .  S
C3923      F3932   1.384       .  S
C3923      F3933   1.383       .  S
C3937      C3938   1.400       .  A
C3937      C3942   1.405       .  A
C3937      H3947   1.083       .  S
C3938      C3943   1.483       .  S
C3938      C3939   1.415       .  A
C3939      C3940   1.409       .  A
C3939      C3944   1.519       .  S
C3940      C3941   1.405       .  A
C3940      H3945   1.083       .  S
C3941      C3942   1.419       .  A
C3942      C3946   1.518       .  S
C3943      C3948   1.416       .  A
C3943      C3952   1.401       .  A
C3944      F3960   1.382       .  S
C3944      F3961   1.382       .  S
C3944      F3962   1.384       .  S
C3946      F3957   1.380       .  S
C3946      F3958   1.385       .  S
C3946      F3959   1.383       .  S
C3948      C3949   1.408       .  A
C3948      C3953   1.520       .  S
C3949      C3950   1.403       .  A
C3949      H3954   1.083       .  S
C3950      C3951   1.418       .  A
C3951      C3952   1.404       .  A
C3951      C3955   1.519       .  S
C3952      H3956   1.085       .  S
C3953      F3966   1.384       .  S
C3953      F3967   1.382       .  S
C3953      F3968   1.382       .  S
C3955      F3963   1.384       .  S
C3955      F3964   1.381       .  S
C3955      F3965   1.383       .  S
C3969      C3970   1.402       .  A
C3969      C3974   1.410       .  A
C3969      H3979   1.083       .  S
C3970      C3975   1.491       .  S
C3970      C3971   1.415       .  A
C3971      C3972   1.409       .  A
C3971      C3976   1.520       .  S
C3972      C3973   1.411       .  A
C3972      H3977   1.082       .  S
C3973      C3974   1.425       .  A
C3974      C3978   1.519       .  S
C3975      C3980   1.419       .  A
C3975      C3984   1.403       .  A
C3976      F3992   1.381       .  S
C3976      F3993   1.382       .  S
C3976      F3994   1.385       .  S
C3978      F3989   1.385       .  S
C3978      F3990   1.382       .  S
C3978      F3991   1.383       .  S
C3980      C3981   1.411       .  A
C3980      C3985   1.519       .  S
C3981      C3982   1.403       .  A
C3981      H3986   1.083       .  S
C3982      C3983   1.414       .  A
C3983      C3984   1.405       .  A
C3983      C3987   1.517       .  S
C3984      H3988   1.083       .  S
C3985      F3998   1.385       .  S
C3985      F3999   1.381       .  S
C3985      F4000   1.382       .  S
C3987      F3995   1.381       .  S
C3987      F3996   1.382       .  S
C3987      F3997   1.385       .  S
C4001      C4002   1.402       .  A
C4001      C4006   1.408       .  A
C4001      H4011   1.083       .  S
C4002      C4007   1.487       .  S
C4002      C4003   1.416       .  A
C4003      C4004   1.406       .  A
C4003      C4008   1.520       .  S
C4004      C4005   1.403       .  A
C4004      H4009   1.083       .  S
C4005      C4006   1.419       .  A
C4006      C4010   1.518       .  S
C4007      C4012   1.414       .  A
C4007      C4016   1.404       .  A
C4008      F4024   1.381   1_545  S
C4008      F4025   1.382       .  S
C4008      F4026   1.385   1_545  S
C4010      F4021   1.383       .  S
C4010      F4022   1.385       .  S
C4010      F4023   1.383       .  S
C4012      C4013   1.405       .  A
C4012      C4017   1.520       .  S
C4013      C4014   1.407       .  A
C4013      H4018   1.083       .  S
C4014      C4015   1.419       .  A
C4015      C4016   1.409       .  A
C4015      C4019   1.520       .  S
C4016      H4020   1.083       .  S
C4017      F4030   1.385       .  S
C4017      F4031   1.382       .  S
C4017      F4032   1.382       .  S
C4019      F4027   1.382       .  S
C4019      F4028   1.384   1_545  S
C4019      F4029   1.385   1_545  S
C4033      C4034   1.402       .  A
C4033      C4038   1.409       .  A
C4033      H4043   1.083       .  S
C4034      C4039   1.484       .  S
C4034      C4035   1.416       .  A
C4035      C4036   1.404       .  A
C4035      C4040   1.520       .  S
C4036      C4037   1.403       .  A
C4036      H4041   1.082       .  S
C4037      C4038   1.421       .  A
C4038      C4042   1.520       .  S
C4039      C4044   1.413       .  A
C4039      C4048   1.400       .  A
C4040      F4056   1.382       .  S
C4040      F4057   1.382       .  S
C4040      F4058   1.384       .  S
C4042      F4053   1.384       .  S
C4042      F4054   1.385       .  S
C4042      F4055   1.382       .  S
C4044      C4045   1.407       .  A
C4044      C4049   1.520       .  S
C4045      C4046   1.408       .  A
C4045      H4050   1.083       .  S
C4046      C4047   1.423       .  A
C4047      C4048   1.407       .  A
C4047      C4051   1.520       .  S
C4048      H4052   1.083       .  S
C4049      F4062   1.384       .  S
C4049      F4063   1.382       .  S
C4049      F4064   1.382       .  S
C4051      F4059   1.383       .  S
C4051      F4060   1.382       .  S
C4051      F4061   1.385       .  S
C4065      C4066   1.402       .  A
C4065      C4070   1.408   1_565  A
C4065      H4075   1.083       .  S
C4066      C4071   1.487       .  S
C4066      C4067   1.417       .  A
C4067      C4068   1.406       .  A
C4067      C4072   1.518       .  S
C4068      C4069   1.402   1_565  A
C4068      H4073   1.083       .  S
C4069      C4070   1.418       .  A
C4070      C4074   1.518       .  S
C4071      C4076   1.418       .  A
C4071      C4080   1.402       .  A
C4072      F4088   1.382       .  S
C4072      F4089   1.382       .  S
C4072      F4090   1.385       .  S
C4074      F4085   1.383       .  S
C4074      F4086   1.385       .  S
C4074      F4087   1.382       .  S
C4076      C4077   1.408       .  A
C4076      C4081   1.518       .  S
C4077      C4078   1.400       .  A
C4077      H4082   1.083       .  S
C4078      C4079   1.417       .  A
C4079      C4080   1.407       .  A
C4079      C4083   1.518       .  S
C4080      H4084   1.083       .  S
C4081      F4094   1.385       .  S
C4081      F4095   1.382       .  S
C4081      F4096   1.383       .  S
C4083      F4091   1.382       .  S
C4083      F4092   1.382       .  S
C4083      F4093   1.384       .  S
C4097      C4098   1.404       .  A
C4097      C4102   1.408       .  A
C4097      H4107   1.083       .  S
C4098      C4103   1.488       .  S
C4098      C4099   1.416       .  A
C4099      C4100   1.408       .  A
C4099      C4104   1.520       .  S
C4100      C4101   1.405       .  A
C4100      H4105   1.083       .  S
C4101      C4102   1.415       .  A
C4102      C4106   1.514       .  S
C4103      C4108   1.418       .  A
C4103      C4112   1.404       .  A
C4104      F4120   1.381       .  S
C4104      F4121   1.382       .  S
C4104      F4122   1.384       .  S
C4106      F4117   1.384       .  S
C4106      F4118   1.383       .  S
C4106      F4119   1.381       .  S
C4108      C4109   1.409       .  A
C4108      C4113   1.520       .  S
C4109      C4110   1.402       .  A
C4109      H4114   1.083       .  S
C4110      C4111   1.413       .  A
C4111      C4112   1.407       .  A
C4111      C4115   1.518       .  S
C4112      H4116   1.083       .  S
C4113      F4126   1.384       .  S
C4113      F4127   1.381       .  S
C4113      F4128   1.382       .  S
C4115      F4123   1.383       .  S
C4115      F4124   1.383       .  S
C4115      F4125   1.384       .  S
C4129      C4130   1.401       .  A
C4129      C4134   1.406       .  A
C4129      H4139   1.083       .  S
C4130      C4135   1.488       .  S
C4130      C4131   1.417       .  A
C4131      C4132   1.411       .  A
C4131      C4136   1.520       .  S
C4132      C4133   1.406       .  A
C4132      H4137   1.083       .  S
C4133      C4134   1.419       .  A
C4134      C4138   1.519       .  S
C4135      C4140   1.413       .  A
C4135      C4144   1.396       .  A
C4136      F4152   1.382       .  S
C4136      F4153   1.383       .  S
C4136      F4154   1.384       .  S
C4138      F4149   1.384       .  S
C4138      F4150   1.382       .  S
C4138      F4151   1.384       .  S
C4140      C4141   1.411       .  A
C4140      C4145   1.518       .  S
C4141      C4142   1.412       .  A
C4141      H4146   1.082       .  S
C4142      C4143   1.431       .  A
C4143      C4144   1.406       .  A
C4143      C4147   1.519       .  S
C4144      H4148   1.083       .  S
C4145      F4158   1.384       .  S
C4145      F4159   1.382       .  S
C4145      F4160   1.382       .  S
C4147      F4155   1.381       .  S
C4147      F4156   1.383       .  S
C4147      F4157   1.385       .  S
C4161      C4162   1.404       .  A
C4161      C4166   1.412       .  A
C4161      H4171   1.083       .  S
C4162      C4167   1.487       .  S
C4162      C4163   1.417       .  A
C4163      C4164   1.404       .  A
C4163      C4168   1.521       .  S
C4164      C4165   1.402       .  A
C4164      H4169   1.083       .  S
C4165      C4166   1.419       .  A
C4166      C4170   1.518       .  S
C4167      C4172   1.417       .  A
C4167      C4176   1.402       .  A
C4168      F4184   1.382       .  S
C4168      F4185   1.382       .  S
C4168      F4186   1.385       .  S
C4170      F4181   1.385       .  S
C4170      F4182   1.383       .  S
C4170      F4183   1.382       .  S
C4172      C4173   1.411       .  A
C4172      C4177   1.517       .  S
C4173      C4174   1.403       .  A
C4173      H4178   1.083       .  S
C4174      C4175   1.413       .  A
C4175      C4176   1.404       .  A
C4175      C4179   1.517       .  S
C4176      H4180   1.083       .  S
C4177      F4190   1.385       .  S
C4177      F4191   1.383       .  S
C4177      F4192   1.382       .  S
C4179      F4187   1.384       .  S
C4179      F4188   1.383       .  S
C4179      F4189   1.383       .  S
C4193      C4194   1.401       .  A
C4193      C4198   1.405       .  A
C4193      H4203   1.085       .  S
C4194      C4199   1.487       .  S
C4194      C4195   1.415       .  A
C4195      C4196   1.409       .  A
C4195      C4200   1.519       .  S
C4196      C4197   1.405       .  A
C4196      H4201   1.083       .  S
C4197      C4198   1.421       .  A
C4198      C4202   1.521       .  S
C4199      C4204   1.417       .  A
C4199      C4208   1.403       .  A
C4200      F4216   1.382       .  S
C4200      F4217   1.382       .  S
C4200      F4218   1.384       .  S
C4202      F4213   1.383       .  S
C4202      F4214   1.384       .  S
C4202      F4215   1.379       .  S
C4204      C4205   1.409       .  A
C4204      C4209   1.518       .  S
C4205      C4206   1.402       .  A
C4205      H4210   1.083       .  S
C4206      C4207   1.414       .  A
C4207      C4208   1.406       .  A
C4207      C4211   1.515       .  S
C4208      H4212   1.083       .  S
C4209      F4222   1.385       .  S
C4209      F4223   1.382       .  S
C4209      F4224   1.382       .  S
C4211      F4219   1.385       .  S
C4211      F4220   1.382       .  S
C4211      F4221   1.383       .  S
C4225      C4226   1.399       .  A
C4225      C4230   1.409       .  A
C4225      H4235   1.083       .  S
C4226      C4231   1.486       .  S
C4226      C4227   1.413       .  A
C4227      C4228   1.408       .  A
C4227      C4232   1.520       .  S
C4228      C4229   1.411       .  A
C4228      H4233   1.082       .  S
C4229      C4230   1.428       .  A
C4230      C4234   1.521       .  S
C4231      C4236   1.414       .  A
C4231      C4240   1.402       .  A
C4232      F4248   1.382       .  S
C4232      F4249   1.382       .  S
C4232      F4250   1.385       .  S
C4234      F4245   1.385       .  S
C4234      F4246   1.384       .  S
C4234      F4247   1.383       .  S
C4236      C4237   1.406       .  A
C4236      C4241   1.519       .  S
C4237      C4238   1.405       .  A
C4237      H4242   1.083       .  S
C4238      C4239   1.422       .  A
C4239      C4240   1.410       .  A
C4239      C4243   1.520       .  S
C4240      H4244   1.083       .  S
C4241      F4254   1.384       .  S
C4241      F4255   1.383       .  S
C4241      F4256   1.382       .  S
C4243      F4251   1.383       .  S
C4243      F4252   1.383       .  S
C4243      F4253   1.385       .  S
C4257      C4258   1.403       .  A
C4257      C4262   1.410       .  A
C4257      H4267   1.083   1_455  S
C4258      C4263   1.489       .  S
C4258      C4259   1.416       .  A
C4259      C4260   1.407       .  A
C4259      C4264   1.520       .  S
C4260      C4261   1.406       .  A
C4260      H4265   1.083       .  S
C4261      C4262   1.421       .  A
C4262      C4266   1.518   1_455  S
C4263      C4268   1.414       .  A
C4263      C4272   1.398       .  A
C4264      F4280   1.382       .  S
C4264      F4281   1.382       .  S
C4264      F4282   1.385       .  S
C4266      F4277   1.382       .  S
C4266      F4278   1.384       .  S
C4266      F4279   1.383       .  S
C4268      C4269   1.411       .  A
C4268      C4273   1.520       .  S
C4269      C4270   1.410       .  A
C4269      H4274   1.080       .  S
C4270      C4271   1.429       .  A
C4271      C4272   1.409       .  A
C4271      C4275   1.521       .  S
C4272      H4276   1.083       .  S
C4273      F4286   1.384       .  S
C4273      F4287   1.383       .  S
C4273      F4288   1.382       .  S
C4275      F4283   1.383       .  S
C4275      F4284   1.384       .  S
C4275      F4285   1.385       .  S
C4289      C4290   1.400       .  A
C4289      C4294   1.416       .  A
C4289      H4299   1.083       .  S
C4290      C4295   1.496       .  S
C4290      C4291   1.413       .  A
C4291      C4292   1.410       .  A
C4291      C4296   1.522       .  S
C4292      C4293   1.416       .  A
C4292      H4297   1.081       .  S
C4293      C4294   1.431       .  A
C4294      C4298   1.516       .  S
C4295      C4300   1.418       .  A
C4295      C4304   1.405       .  A
C4296      F4312   1.382       .  S
C4296      F4313   1.381       .  S
C4296      F4314   1.385       .  S
C4298      F4309   1.379       .  S
C4298      F4310   1.385       .  S
C4298      F4311   1.383       .  S
C4300      C4301   1.411       .  A
C4300      C4305   1.518       .  S
C4301      C4302   1.403       .  A
C4301      H4306   1.083       .  S
C4302      C4303   1.417       .  A
C4303      C4304   1.412       .  A
C4303      C4307   1.517       .  S
C4304      H4308   1.083       .  S
C4305      F4318   1.385       .  S
C4305      F4319   1.382       .  S
C4305      F4320   1.381       .  S
C4307      F4315   1.385       .  S
C4307      F4316   1.384       .  S
C4307      F4317   1.381       .  S
C4321      C4322   1.401       .  A
C4321      C4326   1.405       .  A
C4321      H4331   1.085       .  S
C4322      C4327   1.490       .  S
C4322      C4323   1.418       .  A
C4323      C4324   1.411       .  A
C4323      C4328   1.519       .  S
C4324      C4325   1.404       .  A
C4324      H4329   1.083       .  S
C4325      C4326   1.419       .  A
C4326      C4330   1.517       .  S
C4327      C4332   1.415       .  A
C4327      C4336   1.402       .  A
C4328      F4344   1.382       .  S
C4328      F4345   1.382       .  S
C4328      F4346   1.384       .  S
C4330      F4341   1.384       .  S
C4330      F4342   1.383       .  S
C4330      F4343   1.381       .  S
C4332      C4333   1.412       .  A
C4332      C4337   1.518       .  S
C4333      C4334   1.408       .  A
C4333      H4338   1.083       .  S
C4334      C4335   1.420       .  A
C4335      C4336   1.407       .  A
C4335      C4339   1.520       .  S
C4336      H4340   1.083       .  S
C4337      F4350   1.384       .  S
C4337      F4351   1.382       .  S
C4337      F4352   1.382       .  S
C4339      F4347   1.384       .  S
C4339      F4348   1.384       .  S
C4339      F4349   1.382       .  S
C4353      C4354   1.405       .  A
C4353      C4358   1.410       .  A
C4353      H4363   1.083       .  S
C4354      C4359   1.489       .  S
C4354      C4355   1.416       .  A
C4355      C4356   1.407       .  A
C4355      C4360   1.519       .  S
C4356      C4357   1.402       .  A
C4356      H4361   1.083       .  S
C4357      C4358   1.414       .  A
C4358      C4362   1.514   1_655  S
C4359      C4364   1.412       .  A
C4359      C4368   1.399       .  A
C4360      F4376   1.382       .  S
C4360      F4377   1.382       .  S
C4360      F4378   1.384       .  S
C4362      F4373   1.385       .  S
C4362      F4374   1.383       .  S
C4362      F4375   1.383       .  S
C4364      C4365   1.406       .  A
C4364      C4369   1.522       .  S
C4365      C4366   1.413       .  A
C4365      H4370   1.081       .  S
C4366      C4367   1.432       .  A
C4367      C4368   1.413       .  A
C4367      C4371   1.522       .  S
C4368      H4372   1.083       .  S
C4369      F4382   1.384       .  S
C4369      F4383   1.382       .  S
C4369      F4384   1.383       .  S
C4371      F4379   1.385       .  S
C4371      F4380   1.383       .  S
C4371      F4381   1.384       .  S
C4385      C4386   1.398       .  A
C4385      C4390   1.407       .  A
C4385      H4395   1.083       .  S
C4386      C4391   1.485       .  S
C4386      C4387   1.414       .  A
C4387      C4388   1.409       .  A
C4387      C4392   1.519       .  S
C4388      C4389   1.409       .  A
C4388      H4393   1.083       .  S
C4389      C4390   1.426       .  A
C4390      C4394   1.518       .  S
C4391      C4396   1.415       .  A
C4391      C4400   1.402       .  A
C4392      F4408   1.382       .  S
C4392      F4409   1.382       .  S
C4392      F4410   1.384       .  S
C4394      F4405   1.385       .  S
C4394      F4406   1.383       .  S
C4394      F4407   1.382       .  S
C4396      C4397   1.406       .  A
C4396      C4401   1.520   1_655  S
C4397      C4398   1.405       .  A
C4397      H4402   1.083       .  S
C4398      C4399   1.420       .  A
C4399      C4400   1.409       .  A
C4399      C4403   1.518       .  S
C4400      H4404   1.083       .  S
C4401      F4414   1.385       .  S
C4401      F4415   1.382       .  S
C4401      F4416   1.382       .  S
C4403      F4411   1.385       .  S
C4403      F4412   1.382       .  S
C4403      F4413   1.384       .  S
C4417      C4418   1.400       .  A
C4417      C4422   1.406       .  A
C4417      H4427   1.083       .  S
C4418      C4423   1.480       .  S
C4418      C4419   1.415       .  A
C4419      C4420   1.405       .  A
C4419      C4424   1.521       .  S
C4420      C4421   1.405       .  A
C4420      H4425   1.083       .  S
C4421      C4422   1.419       .  A
C4422      C4426   1.516       .  S
C4423      C4428   1.416       .  A
C4423      C4432   1.402       .  A
C4424      F4440   1.382       .  S
C4424      F4441   1.382       .  S
C4424      F4442   1.385       .  S
C4426      F4437   1.385       .  S
C4426      F4438   1.381       .  S
C4426      F4439   1.383       .  S
C4428      C4429   1.407       .  A
C4428      C4433   1.519       .  S
C4429      C4430   1.401       .  A
C4429      H4434   1.083       .  S
C4430      C4431   1.412       .  A
C4431      C4432   1.404       .  A
C4431      C4435   1.518       .  S
C4432      H4436   1.083       .  S
C4433      F4446   1.384       .  S
C4433      F4447   1.382       .  S
C4433      F4448   1.382       .  S
C4435      F4443   1.385       .  S
C4435      F4444   1.383       .  S
C4435      F4445   1.383       .  S
C4449      C4450   1.399       .  A
C4449      C4454   1.410       .  A
C4449      H4459   1.083       .  S
C4450      C4455   1.486       .  S
C4450      C4451   1.412       .  A
C4451      C4452   1.405       .  A
C4451      C4456   1.521       .  S
C4452      C4453   1.412       .  A
C4452      H4457   1.082       .  S
C4453      C4454   1.430       .  A
C4454      C4458   1.522       .  S
C4455      C4460   1.413       .  A
C4455      C4464   1.400       .  A
C4456      F4472   1.382       .  S
C4456      F4473   1.382       .  S
C4456      F4474   1.385       .  S
C4458      F4469   1.383       .  S
C4458      F4470   1.385       .  S
C4458      F4471   1.383       .  S
C4460      C4461   1.406       .  A
C4460      C4465   1.521       .  S
C4461      C4462   1.410       .  A
C4461      H4466   1.083       .  S
C4462      C4463   1.425       .  A
C4463      C4464   1.411       .  A
C4463      C4467   1.516       .  S
C4464      H4468   1.083       .  S
C4465      F4478   1.384       .  S
C4465      F4479   1.382       .  S
C4465      F4480   1.382       .  S
C4467      F4475   1.385       .  S
C4467      F4476   1.382       .  S
C4467      F4477   1.383       .  S
C4481      C4482   1.398       .  A
C4481      C4486   1.411       .  A
C4481      H4491   1.083       .  S
C4482      C4487   1.481       .  S
C4482      C4483   1.410       .  A
C4483      C4484   1.404       .  A
C4483      C4488   1.523       .  S
C4484      C4485   1.414       .  A
C4484      H4489   1.081       .  S
C4485      C4486   1.430       .  A
C4486      C4490   1.520       .  S
C4487      C4492   1.415       .  A
C4487      C4496   1.402       .  A
C4488      F4504   1.382       .  S
C4488      F4505   1.383       .  S
C4488      F4506   1.384       .  S
C4490      F4501   1.385       .  S
C4490      F4502   1.383       .  S
C4490      F4503   1.383       .  S
C4492      C4493   1.403       .  A
C4492      C4497   1.519       .  S
C4493      C4494   1.404       .  A
C4493      H4498   1.083       .  S
C4494      C4495   1.419       .  A
C4495      C4496   1.407       .  A
C4495      C4499   1.520       .  S
C4496      H4500   1.083       .  S
C4497      F4510   1.385       .  S
C4497      F4511   1.382       .  S
C4497      F4512   1.382       .  S
C4499      F4507   1.384       .  S
C4499      F4508   1.382       .  S
C4499      F4509   1.384       .  S
C4513      C4514   1.403       .  A
C4513      C4518   1.405       .  A
C4513      H4523   1.083       .  S
C4514      C4519   1.492       .  S
C4514      C4515   1.419       .  A
C4515      C4516   1.413       .  A
C4515      C4520   1.518       .  S
C4516      C4517   1.404       .  A
C4516      H4521   1.083       .  S
C4517      C4518   1.414       .  A
C4518      C4522   1.519       .  S
C4519      C4524   1.420       .  A
C4519      C4528   1.404       .  A
C4520      F4536   1.382       .  S
C4520      F4537   1.382       .  S
C4520      F4538   1.385       .  S
C4522      F4533   1.384       .  S
C4522      F4534   1.382       .  S
C4522      F4535   1.384       .  S
C4524      C4525   1.411       .  A
C4524      C4529   1.520       .  S
C4525      C4526   1.402       .  A
C4525      H4530   1.083       .  S
C4526      C4527   1.415       .  A
C4527      C4528   1.410       .  A
C4527      C4531   1.517       .  S
C4528      H4532   1.083       .  S
C4529      F4542   1.384       .  S
C4529      F4543   1.382       .  S
C4529      F4544   1.382       .  S
C4531      F4539   1.383       .  S
C4531      F4540   1.384       .  S
C4531      F4541   1.384       .  S
C4545      C4546   1.401       .  A
C4545      C4550   1.406       .  A
C4545      H4555   1.083       .  S
C4546      C4551   1.482       .  S
C4546      C4547   1.416       .  A
C4547      C4548   1.406       .  A
C4547      C4552   1.519       .  S
C4548      C4549   1.402       .  A
C4548      H4553   1.083       .  S
C4549      C4550   1.419       .  A
C4550      C4554   1.520       .  S
C4551      C4556   1.416       .  A
C4551      C4560   1.402       .  A
C4552      F4568   1.382       .  S
C4552      F4569   1.382       .  S
C4552      F4570   1.385       .  S
C4554      F4565   1.384       .  S
C4554      F4566   1.385       .  S
C4554      F4567   1.381       .  S
C4556      C4557   1.406       .  A
C4556      C4561   1.519       .  S
C4557      C4558   1.402       .  A
C4557      H4562   1.083       .  S
C4558      C4559   1.415       .  A
C4559      C4560   1.405       .  A
C4559      C4563   1.519       .  S
C4560      H4564   1.083       .  S
C4561      F4574   1.385       .  S
C4561      F4575   1.382       .  S
C4561      F4576   1.382       .  S
C4563      F4571   1.383       .  S
C4563      F4572   1.382       .  S
C4563      F4573   1.385       .  S
C4577      C4578   1.399       .  A
C4577      C4582   1.408       .  A
C4577      H4587   1.083       .  S
C4578      C4583   1.490       .  S
C4578      C4579   1.414       .  A
C4579      C4580   1.411       .  A
C4579      C4584   1.519       .  S
C4580      C4581   1.410       .  A
C4580      H4585   1.082       .  S
C4581      C4582   1.429       .  A
C4582      C4586   1.520       .  S
C4583      C4588   1.418       .  A
C4583      C4592   1.401       .  A
C4584      F4600   1.382       .  S
C4584      F4601   1.382       .  S
C4584      F4602   1.385       .  S
C4586      F4597   1.385       .  S
C4586      F4598   1.383       .  S
C4586      F4599   1.382       .  S
C4588      C4589   1.410       .  A
C4588      C4593   1.519       .  S
C4589      C4590   1.405       .  A
C4589      H4594   1.083       .  S
C4590      C4591   1.420       .  A
C4591      C4592   1.407       .  A
C4591      C4595   1.516       .  S
C4592      H4596   1.083       .  S
C4593      F4606   1.385       .  S
C4593      F4607   1.382       .  S
C4593      F4608   1.381       .  S
C4595      F4603   1.381       .  S
C4595      F4604   1.384       .  S
C4595      F4605   1.384       .  S
C4609      C4610   1.402       .  A
C4609      C4614   1.409       .  A
C4609      H4619   1.083       .  S
C4610      C4615   1.487       .  S
C4610      C4611   1.414       .  A
C4611      C4612   1.406       .  A
C4611      C4616   1.520       .  S
C4612      C4613   1.408       .  A
C4612      H4617   1.082       .  S
C4613      C4614   1.425       .  A
C4614      C4618   1.521       .  S
C4615      C4620   1.412       .  A
C4615      C4624   1.399       .  A
C4616      F4632   1.382       .  S
C4616      F4633   1.381       .  S
C4616      F4634   1.385       .  S
C4618      F4629   1.385       .  S
C4618      F4630   1.382       .  S
C4618      F4631   1.383       .  S
C4620      C4621   1.409       .  A
C4620      C4625   1.520       .  S
C4621      C4622   1.412       .  A
C4621      H4626   1.082       .  S
C4622      C4623   1.431       .  A
C4623      C4624   1.410       .  A
C4623      C4627   1.522       .  S
C4624      H4628   1.083       .  S
C4625      F4638   1.384       .  S
C4625      F4639   1.382       .  S
C4625      F4640   1.382       .  S
C4627      F4635   1.385       .  S
C4627      F4636   1.383       .  S
C4627      F4637   1.383       .  S
C4641      C4642   1.404       .  A
C4641      C4646   1.411       .  A
C4641      H4651   1.083       .  S
C4642      C4647   1.487       .  S
C4642      C4643   1.418       .  A
C4643      C4644   1.405       .  A
C4643      C4648   1.520       .  S
C4644      C4645   1.401       .  A
C4644      H4649   1.084       .  S
C4645      C4646   1.414       .  A
C4646      C4650   1.517       .  S
C4647      C4652   1.416       .  A
C4647      C4656   1.398       .  A
C4648      F4664   1.382       .  S
C4648      F4665   1.382       .  S
C4648      F4666   1.385       .  S
C4650      F4661   1.383       .  S
C4650      F4662   1.384       .  S
C4650      F4663   1.383       .  S
C4652      C4653   1.411       .  A
C4652      C4657   1.518       .  S
C4653      C4654   1.406       .  A
C4653      H4658   1.083       .  S
C4654      C4655   1.424       .  A
C4655      C4656   1.406       .  A
C4655      C4659   1.520       .  S
C4656      H4660   1.084       .  S
C4657      F4670   1.384       .  S
C4657      F4671   1.383       .  S
C4657      F4672   1.382       .  S
C4659      F4667   1.385       .  S
C4659      F4668   1.384       .  S
C4659      F4669   1.383       .  S
C4673      C4674   1.403       .  A
C4673      C4678   1.408       .  A
C4673      H4683   1.083       .  S
C4674      C4679   1.484       .  S
C4674      C4675   1.415       .  A
C4675      C4676   1.405       .  A
C4675      C4680   1.519       .  S
C4676      C4677   1.405       .  A
C4676      H4681   1.083       .  S
C4677      C4678   1.419       .  A
C4678      C4682   1.518       .  S
C4679      C4684   1.417       .  A
C4679      C4688   1.401       .  A
C4680      F4696   1.382       .  S
C4680      F4697   1.381       .  S
C4680      F4698   1.385       .  S
C4682      F4693   1.383       .  S
C4682      F4694   1.385       .  S
C4682      F4695   1.382       .  S
C4684      C4685   1.409       .  A
C4684      C4689   1.518       .  S
C4685      C4686   1.403       .  A
C4685      H4690   1.083       .  S
C4686      C4687   1.416       .  A
C4687      C4688   1.404       .  A
C4687      C4691   1.519       .  S
C4688      H4692   1.083       .  S
C4689      F4702   1.385       .  S
C4689      F4703   1.382       .  S
C4689      F4704   1.382       .  S
C4691      F4699   1.385       .  S
C4691      F4700   1.382       .  S
C4691      F4701   1.384       .  S
C4705      C4706   1.401       .  A
C4705      C4710   1.410       .  A
C4705      H4715   1.083       .  S
C4706      C4711   1.484       .  S
C4706      C4707   1.415       .  A
C4707      C4708   1.404       .  A
C4707      C4712   1.521       .  S
C4708      C4709   1.404       .  A
C4708      H4713   1.083       .  S
C4709      C4710   1.424       .  A
C4710      C4714   1.520       .  S
C4711      C4716   1.415       .  A
C4711      C4720   1.403       .  A
C4712      F4728   1.382       .  S
C4712      F4729   1.383       .  S
C4712      F4730   1.384       .  S
C4714      F4725   1.383       .  S
C4714      F4726   1.385       .  S
C4714      F4727   1.384       .  S
C4716      C4717   1.406       .  A
C4716      C4721   1.519       .  S
C4717      C4718   1.402       .  A
C4717      H4722   1.083       .  S
C4718      C4719   1.415       .  A
C4719      C4720   1.409       .  A
C4719      C4723   1.517       .  S
C4720      H4724   1.083       .  S
C4721      F4734   1.384       .  S
C4721      F4735   1.383       .  S
C4721      F4736   1.383       .  S
C4723      F4731   1.385       .  S
C4723      F4732   1.383       .  S
C4723      F4733   1.383       .  S
C4737      C4738   1.403       .  A
C4737      C4742   1.406       .  A
C4737      H4747   1.083       .  S
C4738      C4743   1.482       .  S
C4738      C4739   1.414       .  A
C4739      C4740   1.407       .  A
C4739      C4744   1.519       .  S
C4740      C4741   1.405       .  A
C4740      H4745   1.083       .  S
C4741      C4742   1.417       .  A
C4742      C4746   1.519       .  S
C4743      C4748   1.417       .  A
C4743      C4752   1.400       .  A
C4744      F4760   1.382       .  S
C4744      F4761   1.382       .  S
C4744      F4762   1.384       .  S
C4746      F4757   1.385       .  S
C4746      F4758   1.382       .  S
C4746      F4759   1.384       .  S
C4748      C4749   1.410       .  A
C4748      C4753   1.519       .  S
C4749      C4750   1.403       .  A
C4749      H4754   1.083       .  S
C4750      C4751   1.418       .  A
C4751      C4752   1.400       .  A
C4751      C4755   1.520       .  S
C4752      H4756   1.085       .  S
C4753      F4766   1.385       .  S
C4753      F4767   1.382       .  S
C4753      F4768   1.381       .  S
C4755      F4763   1.383       .  S
C4755      F4764   1.382       .  S
C4755      F4765   1.383       .  S
C4769      C4770   1.404       .  A
C4769      C4774   1.410       .  A
C4769      H4779   1.083       .  S
C4770      C4775   1.484       .  S
C4770      C4771   1.416       .  A
C4771      C4772   1.403       .  A
C4771      C4776   1.520       .  S
C4772      C4773   1.400       .  A
C4772      H4777   1.083       .  S
C4773      C4774   1.416       .  A
C4774      C4778   1.518       .  S
C4775      C4780   1.414       .  A
C4775      C4784   1.399       .  A
C4776      F4792   1.382       .  S
C4776      F4793   1.382       .  S
C4776      F4794   1.384       .  S
C4778      F4789   1.385       .  S
C4778      F4790   1.382       .  S
C4778      F4791   1.383       .  S
C4780      C4781   1.407       .  A
C4780      C4785   1.519       .  S
C4781      C4782   1.407       .  A
C4781      H4786   1.083       .  S
C4782      C4783   1.422       .  A
C4783      C4784   1.407       .  A
C4783      C4787   1.516       .  S
C4784      H4788   1.083       .  S
C4785      F4798   1.385       .  S
C4785      F4799   1.382       .  S
C4785      F4800   1.382       .  S
C4787      F4795   1.381       .  S
C4787      F4796   1.384       .  S
C4787      F4797   1.385       .  S
C4801      C4802   1.402       .  A
C4801      C4806   1.406       .  A
C4801      H4811   1.083       .  S
C4802      C4807   1.488       .  S
C4802      C4803   1.416       .  A
C4803      C4804   1.409       .  A
C4803      C4808   1.519       .  S
C4804      C4805   1.406       .  A
C4804      H4809   1.083       .  S
C4805      C4806   1.417       .  A
C4806      C4810   1.517       .  S
C4807      C4812   1.416       .  A
C4807      C4816   1.401       .  A
C4808      F4824   1.382       .  S
C4808      F4825   1.383       .  S
C4808      F4826   1.385       .  S
C4810      F4821   1.384       .  S
C4810      F4822   1.383       .  S
C4810      F4823   1.382       .  S
C4812      C4813   1.406       .  A
C4812      C4817   1.521       .  S
C4813      C4814   1.405       .  A
C4813      H4818   1.081       .  S
C4814      C4815   1.425       .  A
C4815      C4816   1.410       .  A
C4815      C4819   1.520       .  S
C4816      H4820   1.083       .  S
C4817      F4830   1.384       .  S
C4817      F4831   1.382       .  S
C4817      F4832   1.383       .  S
C4819      F4827   1.385       .  S
C4819      F4828   1.382       .  S
C4819      F4829   1.384       .  S
C4833      C4834   1.402       .  A
C4833      C4838   1.412       .  A
C4833      H4843   1.083       .  S
C4834      C4839   1.490       .  S
C4834      C4835   1.414       .  A
C4835      C4836   1.407       .  A
C4835      C4840   1.520       .  S
C4836      C4837   1.410       .  A
C4836      H4841   1.082       .  S
C4837      C4838   1.424       .  A
C4838      C4842   1.518       .  S
C4839      C4844   1.417       .  A
C4839      C4848   1.403       .  A
C4840      F4856   1.382       .  S
C4840      F4857   1.382       .  S
C4840      F4858   1.385       .  S
C4842      F4853   1.385       .  S
C4842      F4854   1.384       .  S
C4842      F4855   1.382       .  S
C4844      C4845   1.409       .  A
C4844      C4849   1.519       .  S
C4845      C4846   1.404       .  A
C4845      H4850   1.083       .  S
C4846      C4847   1.419       .  A
C4847      C4848   1.410       .  A
C4847      C4851   1.518       .  S
C4848      H4852   1.083       .  S
C4849      F4862   1.384       .  S
C4849      F4863   1.382       .  S
C4849      F4864   1.382       .  S
C4851      F4859   1.384       .  S
C4851      F4860   1.383       .  S
C4851      F4861   1.384       .  S
C4865      C4866   1.403       .  A
C4865      C4870   1.407       .  A
C4865      H4875   1.083       .  S
C4866      C4871   1.486       .  S
C4866      C4867   1.416       .  A
C4867      C4868   1.410       .  A
C4867      C4872   1.519       .  S
C4868      C4869   1.403       .  A
C4868      H4873   1.083       .  S
C4869      C4870   1.414       .  A
C4870      C4874   1.517       .  S
C4871      C4876   1.419       .  A
C4871      C4880   1.401       .  A
C4872      F4888   1.382       .  S
C4872      F4889   1.383       .  S
C4872      F4890   1.384       .  S
C4874      F4885   1.383       .  S
C4874      F4886   1.384       .  S
C4874      F4887   1.382       .  S
C4876      C4877   1.410       .  A
C4876      C4881   1.519       .  S
C4877      C4878   1.403       .  A
C4877      H4882   1.083       .  S
C4878      C4879   1.416       .  A
C4879      C4880   1.403       .  A
C4879      C4883   1.517       .  S
C4880      H4884   1.084       .  S
C4881      F4894   1.385       .  S
C4881      F4895   1.382       .  S
C4881      F4896   1.382       .  S
C4883      F4891   1.384       .  S
C4883      F4892   1.382       .  S
C4883      F4893   1.383       .  S
C4897      C4898   1.402       .  A
C4897      C4902   1.412       .  A
C4897      H4907   1.083       .  S
C4898      C4903   1.482       .  S
C4898      C4899   1.412       .  A
C4899      C4900   1.400       .  A
C4899      C4904   1.523       .  S
C4900      C4901   1.410       .  A
C4900      H4905   1.082       .  S
C4901      C4902   1.423       .  A
C4902      C4906   1.518       .  S
C4903      C4908   1.416       .  A
C4903      C4912   1.402       .  A
C4904      F4920   1.382       .  S
C4904      F4921   1.382       .  S
C4904      F4922   1.385       .  S
C4906      F4917   1.385       .  S
C4906      F4918   1.383       .  S
C4906      F4919   1.383       .  S
C4908      C4909   1.407       .  A
C4908      C4913   1.519       .  S
C4909      C4910   1.401       .  A
C4909      H4914   1.083       .  S
C4910      C4911   1.414       .  A
C4911      C4912   1.405       .  A
C4911      C4915   1.517       .  S
C4912      H4916   1.083       .  S
C4913      F4926   1.384       .  S
C4913      F4927   1.383       .  S
C4913      F4928   1.382       .  S
C4915      F4923   1.384       .  S
C4915      F4924   1.382       .  S
C4915      F4925   1.384   1_455  S
C4929      C4930   1.401       .  A
C4929      C4934   1.407       .  A
C4929      H4939   1.083       .  S
C4930      C4935   1.486       .  S
C4930      C4931   1.414       .  A
C4931      C4932   1.407       .  A
C4931      C4936   1.518       .  S
C4932      C4933   1.406       .  A
C4932      H4937   1.083       .  S
C4933      C4934   1.420       .  A
C4934      C4938   1.520       .  S
C4935      C4940   1.416       .  A
C4935      C4944   1.403       .  A
C4936      F4952   1.383       .  S
C4936      F4953   1.382       .  S
C4936      F4954   1.385       .  S
C4938      F4949   1.385       .  S
C4938      F4950   1.383       .  S
C4938      F4951   1.383       .  S
C4940      C4941   1.405       .  A
C4940      C4945   1.523       .  S
C4941      C4942   1.406       .  A
C4941      H4946   1.083       .  S
C4942      C4943   1.420       .  A
C4943      C4944   1.413       .  A
C4943      C4947   1.517       .  S
C4944      H4948   1.083       .  S
C4945      F4958   1.384       .  S
C4945      F4959   1.382       .  S
C4945      F4960   1.383       .  S
C4947      F4955   1.385       .  S
C4947      F4956   1.380       .  S
C4947      F4957   1.383       .  S
C4961      C4962   1.401       .  A
C4961      C4966   1.409       .  A
C4961      H4971   1.083       .  S
C4962      C4967   1.485   1_455  S
C4962      C4963   1.416       .  A
C4963      C4964   1.406       .  A
C4963      C4968   1.520       .  S
C4964      C4965   1.404       .  A
C4964      H4969   1.083       .  S
C4965      C4966   1.422       .  A
C4966      C4970   1.519       .  S
C4967      C4972   1.414       .  A
C4967      C4976   1.402       .  A
C4968      F4984   1.382       .  S
C4968      F4985   1.383   1_455  S
C4968      F4986   1.384       .  S
C4970      F4981   1.382       .  S
C4970      F4982   1.385       .  S
C4970      F4983   1.384       .  S
C4972      C4973   1.406       .  A
C4972      C4977   1.520       .  S
C4973      C4974   1.406       .  A
C4973      H4978   1.083       .  S
C4974      C4975   1.419       .  A
C4975      C4976   1.409       .  A
C4975      C4979   1.517       .  S
C4976      H4980   1.083   1_655  S
C4977      F4990   1.385       .  S
C4977      F4991   1.382       .  S
C4977      F4992   1.383       .  S
C4979      F4987   1.385   1_655  S
C4979      F4988   1.382       .  S
C4979      F4989   1.383       .  S
C4993      C4994   1.401       .  A
C4993      C4998   1.413       .  A
C4993      H5003   1.083       .  S
C4994      C4999   1.485       .  S
C4994      C4995   1.412       .  A
C4995      C4996   1.403       .  A
C4995      C5000   1.522       .  S
C4996      C4997   1.411       .  A
C4996      H5001   1.083       .  S
C4997      C4998   1.424       .  A
C4998      C5002   1.514       .  S
C4999      C5004   1.413       .  A
C4999      C5008   1.400       .  A
C5000      F5016   1.382       .  S
C5000      F5017   1.382       .  S
C5000      F5018   1.384       .  S
C5002      F5013   1.385       .  S
C5002      F5014   1.382       .  S
C5002      F5015   1.379       .  S
C5004      C5005   1.405       .  A
C5004      C5009   1.521       .  S
C5005      C5006   1.408       .  A
C5005      H5010   1.083       .  S
C5006      C5007   1.426       .  A
C5007      C5008   1.410       .  A
C5007      C5011   1.520       .  S
C5008      H5012   1.083       .  S
C5009      F5022   1.385       .  S
C5009      F5023   1.382       .  S
C5009      F5024   1.382       .  S
C5011      F5019   1.383       .  S
C5011      F5020   1.384       .  S
C5011      F5021   1.385       .  S
C5025      C5026   1.400       .  A
C5025      C5030   1.404       .  A
C5025      H5035   1.083       .  S
C5026      C5031   1.486       .  S
C5026      C5027   1.416       .  A
C5027      C5028   1.413       .  A
C5027      C5032   1.519       .  S
C5028      C5029   1.405       .  A
C5028      H5033   1.083       .  S
C5029      C5030   1.415       .  A
C5030      C5034   1.516       .  S
C5031      C5036   1.416       .  A
C5031      C5040   1.400       .  A
C5032      F5048   1.383       .  S
C5032      F5049   1.382       .  S
C5032      F5050   1.384       .  S
C5034      F5045   1.381       .  S
C5034      F5046   1.384       .  S
C5034      F5047   1.381       .  S
C5036      C5037   1.406       .  A
C5036      C5041   1.519       .  S
C5037      C5038   1.405       .  A
C5037      H5042   1.083       .  S
C5038      C5039   1.424       .  A
C5039      C5040   1.408       .  A
C5039      C5043   1.518       .  S
C5040      H5044   1.083       .  S
C5041      F5054   1.385       .  S
C5041      F5055   1.382       .  S
C5041      F5056   1.382       .  S
C5043      F5051   1.381       .  S
C5043      F5052   1.383       .  S
C5043      F5053   1.385       .  S
C5057      C5058   1.397       .  A
C5057      C5062   1.406       .  A
C5057      H5067   1.083       .  S
C5058      C5063   1.491       .  S
C5058      C5059   1.415       .  A
C5059      C5060   1.413       .  A
C5059      C5064   1.517       .  S
C5060      C5061   1.409       .  A
C5060      H5065   1.083       .  S
C5061      C5062   1.430       .  A
C5062      C5066   1.521       .  S
C5063      C5068   1.417       .  A
C5063      C5072   1.402       .  A
C5064      F5080   1.382       .  S
C5064      F5081   1.382       .  S
C5064      F5082   1.384       .  S
C5066      F5077   1.384       .  S
C5066      F5078   1.383       .  S
C5066      F5079   1.383       .  S
C5068      C5069   1.409       .  A
C5068      C5073   1.520       .  S
C5069      C5070   1.406       .  A
C5069      H5074   1.083       .  S
C5070      C5071   1.422       .  A
C5071      C5072   1.411       .  A
C5071      C5075   1.517       .  S
C5072      H5076   1.083       .  S
C5073      F5086   1.384       .  S
C5073      F5087   1.382       .  S
C5073      F5088   1.382       .  S
C5075      F5083   1.385       .  S
C5075      F5084   1.383       .  S
C5075      F5085   1.382       .  S
C5089      C5090   1.403       .  A
C5089      C5094   1.410       .  A
C5089      H5099   1.083       .  S
C5090      C5095   1.487       .  S
C5090      C5091   1.415       .  A
C5091      C5092   1.407       .  A
C5091      C5096   1.519       .  S
C5092      C5093   1.404       .  A
C5092      H5097   1.083       .  S
C5093      C5094   1.418       .  A
C5094      C5098   1.517       .  S
C5095      C5100   1.417       .  A
C5095      C5104   1.403       .  A
C5096      F5112   1.383       .  S
C5096      F5113   1.382       .  S
C5096      F5114   1.385       .  S
C5098      F5109   1.382       .  S
C5098      F5110   1.385       .  S
C5098      F5111   1.383       .  S
C5100      C5101   1.406       .  A
C5100      C5105   1.521       .  S
C5101      C5102   1.402       .  A
C5101      H5106   1.083       .  S
C5102      C5103   1.418       .  A
C5103      C5104   1.412       .  A
C5103      C5107   1.517       .  S
C5104      H5108   1.083       .  S
C5105      F5118   1.384       .  S
C5105      F5119   1.383       .  S
C5105      F5120   1.381       .  S
C5107      F5115   1.384       .  S
C5107      F5116   1.383       .  S
C5107      F5117   1.383       .  S
C5121      C5122   1.401       .  A
C5121      C5126   1.408       .  A
C5121      H5131   1.083       .  S
C5122      C5127   1.483       .  S
C5122      C5123   1.415       .  A
C5123      C5124   1.404       .  A
C5123      C5128   1.520       .  S
C5124      C5125   1.405       .  A
C5124      H5129   1.083       .  S
C5125      C5126   1.421       .  A
C5126      C5130   1.518       .  S
C5127      C5132   1.417       .  A
C5127      C5136   1.401       .  A
C5128      F5144   1.382       .  S
C5128      F5145   1.382       .  S
C5128      F5146   1.385       .  S
C5130      F5141   1.382       .  S
C5130      F5142   1.385       .  S
C5130      F5143   1.383   1_655  S
C5132      C5133   1.408       .  A
C5132      C5137   1.520       .  S
C5133      C5134   1.401       .  A
C5133      H5138   1.083       .  S
C5134      C5135   1.414       .  A
C5135      C5136   1.406       .  A
C5135      C5139   1.516       .  S
C5136      H5140   1.083       .  S
C5137      F5150   1.384       .  S
C5137      F5151   1.382       .  S
C5137      F5152   1.382       .  S
C5139      F5147   1.385       .  S
C5139      F5148   1.384       .  S
C5139      F5149   1.382       .  S
C5153      C5154   1.404       .  A
C5153      C5158   1.411       .  A
C5153      H5163   1.083       .  S
C5154      C5159   1.495       .  S
C5154      C5155   1.417       .  A
C5155      C5156   1.410       .  A
C5155      C5160   1.518       .  S
C5156      C5157   1.403       .  A
C5156      H5161   1.083       .  S
C5157      C5158   1.417       .  A
C5158      C5162   1.517       .  S
C5159      C5164   1.416       .  A
C5159      C5168   1.403       .  A
C5160      F5176   1.382       .  S
C5160      F5177   1.382       .  S
C5160      F5178   1.385       .  S
C5162      F5173   1.383       .  S
C5162      F5174   1.385       .  S
C5162      F5175   1.382       .  S
C5164      C5165   1.409       .  A
C5164      C5169   1.521       .  S
C5165      C5166   1.408       .  A
C5165      H5170   1.083       .  S
C5166      C5167   1.421       .  A
C5167      C5168   1.414       .  A
C5167      C5171   1.512       .  S
C5168      H5172   1.083       .  S
C5169      F5182   1.384       .  S
C5169      F5183   1.382       .  S
C5169      F5184   1.382       .  S
C5171      F5179   1.382       .  S
C5171      F5180   1.381       .  S
C5171      F5181   1.385       .  S
