geometry optimzed in LAMMPS
_audit_creation_date              2020-11-30 
_audit_creation_method            'lammps2cif' 
_symmetry_space_group_name_H-M    'P1' 
_symmetry_Int_Tables_number       1 
_symmetry_cell_setting            triclinic 
loop_ 
_symmetry_equiv_pos_as_xyz 
  x,y,z 
_cell_length_a                    36.14350459 
_cell_length_b                    36.136712580181594 
_cell_length_c                    52.72539409787655 
_cell_angle_alpha                 89.92795644542409 
_cell_angle_beta                  90.28313352270986 
_cell_angle_gamma                 117.65565294848129 
loop_ 
_atom_site_label 
_atom_site_type_symbol 
_atom_site_fract_x 
_atom_site_fract_y 
_atom_site_fract_z 
_atom_site_charge 
C1          C  0.33691398  0.66144831  0.10128732     0.45000
H2          H  0.33730635  0.66185961  0.08024378    -0.04000
C3          C  0.33467899  0.66008323  0.15045346     0.45100
H4          H  0.33318352  0.65924664  0.17146632    -0.04000
C5          C  0.36124084  0.63915352  0.11294108    -0.17700
C6          C  0.35730107  0.70644230  0.11298939    -0.17500
C7          C  0.29138200  0.63792857  0.11213367    -0.17800
C8          C  0.35967865  0.63800887  0.13935740    -0.17800
C9          C  0.35548917  0.70569204  0.13935871    -0.17400
C10         C  0.29022006  0.63730053  0.13845202    -0.17700
C11         C  0.16612010  0.38425368  0.36508400     0.01800
C12         C  0.17161840  0.37937584  0.39122546     0.01800
C13         C  0.20825900  0.37873113  0.39971666    -0.18700
C14         C  0.24218707  0.39030688  0.38341131     0.01800
C15         C  0.23649327  0.39538439  0.35745753     0.01800
C16         C  0.19799477  0.38982578  0.34831878    -0.18700
H17         H  0.19455635  0.39461554  0.32829618     0.03800
H18         H  0.21274768  0.37585919  0.41983880     0.03800
C19         C  0.28125752  0.65408731  0.36213695     0.01800
C20         C  0.27991653  0.65215528  0.38883122     0.01800
C21         C  0.31307327  0.68270578  0.40260286    -0.18700
C22         C  0.34305772  0.71836682  0.39045300     0.01800
C23         C  0.34456999  0.72004972  0.36364632     0.01800
C24         C  0.31554435  0.68574464  0.34990945    -0.18700
H25         H  0.31483765  0.68782009  0.32938336     0.03800
H26         H  0.31121228  0.68253547  0.42315392     0.03800
C27         C  0.77803112  0.60479805  0.13621280     0.01800
C28         C  0.77193509  0.59546003  0.11003817     0.01800
C29         C  0.80640713  0.60100950  0.09533141    -0.18700
C30         C  0.84403257  0.60773556  0.10704251     0.01800
C31         C  0.84859392  0.61389629  0.13360920     0.01800
C32         C  0.81733520  0.61743327  0.14717765    -0.18700
H33         H  0.82059082  0.62119517  0.16762702     0.03800
H34         H  0.80220382  0.59445916  0.07516156     0.03800
Zr35       Zr  0.93165676  0.48713965  0.00129745     2.17500
O36         O  0.88703989  0.51615438  0.48697114    -0.51800
O37         O  0.88221830  0.44207675  0.03298382    -0.75000
O38         O  0.87644596  0.43943087  0.47017559    -0.81800
O39         O  0.98624038  0.57354705  0.05179573    -0.83500
O40         O  0.90527105  0.40720428  0.44660897    -0.79100
O41         O  0.92519716  0.53585458  0.03007317    -0.90800
O42         O  0.91579204  0.41214376  0.05435037    -0.76700
O43         O  0.93909858  0.42321171  0.50059039    -0.86200
O44         O  0.97289607  0.49015000  0.03770641    -0.85900
O45         O  0.96720084  0.49132569  0.46317283    -0.72700
O46         O  0.99628659  0.55169048  0.99998629    -0.84800
Zr47       Zr  0.08211966  0.49672207  0.49851531     2.26400
Zr48       Zr  0.97745755  0.43045767  0.46249358     2.06300
Zr49       Zr  0.03734820  0.55351827  0.03641298     2.10000
Zr50       Zr  0.98269839  0.42991264  0.03568905     1.78800
O51         O  0.07120715  0.62931723  0.03287249    -0.93600
O52         O  0.94652012  0.35453590  0.02920520    -0.41400
O53         O  0.04760866  0.49289198  0.03534146    -0.78100
O54         O  0.01783614  0.43211787  0.49952778    -0.96700
O55         O  0.04263374  0.49361738  0.46142010    -0.90000
O56         O  0.07528528  0.56116528  0.99838603    -0.92900
C57         C  0.88452151  0.41921586  0.05094901     1.00900
C58         C  0.94777341  0.56255759  0.04687241     1.13800
C59         C  0.87456121  0.41480363  0.45187152     1.04600
O60         O  0.94400949  0.35447814  0.46401105    -0.95000
O61         O  0.02851164  0.40946349  0.44729519    -0.90800
O62         O  0.08645933  0.44579977  0.47139368    -0.83900
C63         C  0.06628126  0.41956514  0.45386895     1.11200
O64         O  0.99586698  0.58688094  0.44115240    -0.97000
Zr65       Zr  0.03286460  0.55392101  0.46245803     1.88900
O66         O  0.13216481  0.54079602  0.46698124    -0.73700
O67         O  0.98201817  0.43654688  0.41644567    -0.52900
O68         O  0.02699257  0.54502336  0.41658919    -0.97600
O69         O  0.06398158  0.62868870  0.47113355    -0.54800
O70         O  0.10208083  0.57485578  0.44588566    -0.74200
C71         C  0.13226880  0.56630857  0.44997964     0.98200
O72         O  0.12590022  0.46830032  0.01383893    -0.63000
O73         O  0.03935361  0.55280893  0.08265596    -0.57800
O74         O  0.13749085  0.54400006  0.02865515    -0.94500
O75         O  0.10771747  0.57405911  0.05326895    -0.92900
O76         O  0.99459213  0.43742733  0.08138205    -0.93300
O77         O  0.02186288  0.39580663  0.05280869    -0.92100
C78         C  0.13865558  0.56727755  0.04760814     1.17000
H79         H  0.95897476  0.49012853  0.05313209     0.32900
H80         H  0.02357484  0.40855741  0.49926798     0.43800
H81         H  0.10181752  0.58617897  0.99877404     0.37300
H82         H  0.95072694  0.49145764  0.44872403     0.33800
H83         H  0.91746910  0.34549999  0.03476915     0.25600
H84         H  0.96877910  0.40739972  0.41015857     0.31500
H85         H  0.03412866  0.52218104  0.41309812     0.37400
H86         H  0.96827513  0.41645041  0.08913780     0.31900
H87         H  0.03748174  0.57808041  0.08813993     0.30800
H88         H  0.08024130  0.63945248  0.05038522     0.32500
H89         H  0.07203515  0.64225796  0.45432129     0.31400
H90         H  0.03809522  0.39349547  0.03838462     0.35400
H91         H  0.12172568  0.46740966  0.03242199     0.28200
H92         H  0.85785809  0.49570307  0.49095330     0.32400
H93         H  0.96729779  0.57277047  0.44822722     0.35200
H94         H  0.01241721  0.52915272  0.08773455     0.27900
H95         H  0.11110993  0.43853196  0.00875714     0.40700
H96         H  0.94064686  0.34568823  0.44601120     0.30800
H97         H  0.94440408  0.35087371  0.01057524     0.38400
H98         H  0.09089066  0.63597411  0.47971645     0.30200
H99         H  0.96254123  0.44753648  0.41144917     0.30300
H100        H  0.88865087  0.51633971  0.46822775     0.30600
Zr101      Zr  0.08059743  0.50073580  0.25541481     2.17500
O102        O  0.11871753  0.46184547  0.24576184    -0.51800
O103        O  0.13478983  0.55172004  0.28127179    -0.75000
O104        O  0.13316714  0.53673025  0.22119177    -0.81800
O105        O  0.02777741  0.43177930  0.31479247    -0.83500
O106        O  0.10720343  0.57107532  0.19653776    -0.79100
O107        O  0.08572113  0.45746931  0.28962454    -0.90800
O108        O  0.10808364  0.58896873  0.30177951    -0.76700
O109        O  0.07568473  0.56359923  0.24867211    -0.86200
O110        O  0.04487988  0.50938701  0.29141568    -0.85900
O111        O  0.04119597  0.48800189  0.21697350    -0.72700
O112        O  0.01382349  0.43966924  0.25904041    -0.84800
Zr113      Zr  0.93124791  0.49702165  0.24986848     2.26400
Zr114      Zr  0.03477511  0.55053498  0.21088008     2.06300
Zr115      Zr  0.97774469  0.44939469  0.29480157     2.10000
Zr116      Zr  0.03954278  0.57139465  0.28429944     1.78800
O117        O  0.94852742  0.37419144  0.30071571    -0.93600
O118        O  0.07851926  0.64383124  0.27052033    -0.41400
O119        O  0.97157868  0.51171712  0.28813749    -0.78100
O120        O  0.99813536  0.55911564  0.24675222    -0.96700
O121        O  0.96756328  0.48971361  0.21384218    -0.90000
O122        O  0.93812136  0.43560186  0.25674321    -0.92900
C123        C  0.13679251  0.57812412  0.29792940     1.00900
C124        C  0.06441891  0.43732681  0.30908196     1.13800
C125        C  0.13647352  0.56145549  0.20248330     1.04600
O126        O  0.06781563  0.62598206  0.20519652    -0.95000
O127        O  0.98521167  0.57137693  0.19254121    -0.90800
O128        O  0.92514448  0.53855048  0.21535683    -0.83900
C129        C  0.94708740  0.56236884  0.19718544     1.11200
O130        O  0.00832004  0.38838867  0.20556110    -0.97000
Zr131      Zr  0.97402779  0.42817271  0.22097131     1.88900
O132        O  0.87608463  0.44413326  0.22428285    -0.73700
O133        O  0.03189729  0.53484794  0.16577902    -0.52900
O134        O  0.97623072  0.42826678  0.17480471    -0.97600
O135        O  0.94110431  0.35469601  0.23303622    -0.54800
O136        O  0.90225143  0.40312570  0.20799518    -0.74200
C137        C  0.87281293  0.41308272  0.21098189     0.98200
O138        O  0.89355601  0.53408641  0.26444592    -0.63000
O139        O  0.97710023  0.46800868  0.33917404    -0.57800
O140        O  0.87684813  0.45623048  0.28208284    -0.94500
O141        O  0.90490084  0.42593444  0.30844897    -0.92900
O142        O  0.03416980  0.57690448  0.33005220    -0.93300
O143        O  0.00882522  0.61546245  0.29786790    -0.92100
C144        C  0.87434452  0.43259196  0.30121808     1.17000
H145        H  0.06019676  0.51202484  0.30694412     0.32900
H146        H  0.99356384  0.58312983  0.24403618     0.43800
H147        H  0.91132468  0.41125606  0.25872718     0.37300
H148        H  0.05610010  0.48389631  0.20299679     0.33800
H149        H  0.10445737  0.64596686  0.26296539     0.25600
H150        H  0.00173844  0.52006335  0.16156862     0.31500
H151        H  0.95716572  0.43950260  0.16933438     0.37400
H152        H  0.04849894  0.56181467  0.33751296     0.31900
H153        H  0.00683966  0.48248617  0.34437830     0.30800
H154        H  0.92634080  0.36680611  0.31356703     0.32500
H155        H  0.91201426  0.34773305  0.23746468     0.31400
H156        H  0.97833440  0.59758756  0.29593837     0.35400
H157        H  0.89790805  0.53642952  0.28305292     0.28200
H158        H  0.14842553  0.48168962  0.24904616     0.32400
H159        H  0.03782150  0.40479093  0.21096798     0.35200
H160        H  0.96841922  0.49028088  0.33885446     0.27900
H161        H  0.90999648  0.56309346  0.25829275     0.40700
H162        H  0.07786156  0.63050387  0.18746328     0.30800
H163        H  0.06248686  0.64636579  0.25593597     0.38400
H164        H  0.95429360  0.35416009  0.24944015     0.30200
H165        H  0.04224623  0.56230413  0.15728905     0.30300
H166        H  0.11662303  0.45796547  0.22713530     0.30600
C167        C  0.74510515  0.32458361  0.11609318     0.01800
C168        C  0.73892980  0.31635319  0.14243762     0.01800
C169        C  0.70182699  0.28294594  0.15078219    -0.18700
C170        C  0.67340895  0.25442690  0.13355628     0.01800
C171        C  0.68033985  0.26164252  0.10726388     0.01800
C172        C  0.71441164  0.29829396  0.09900978    -0.18700
H173        H  0.71946831  0.30397691  0.07879796     0.03800
H174        H  0.69698904  0.27674683  0.17096741     0.03800
C175        C  0.45047017  0.17616256  0.12364820     0.01800
C176        C  0.43624485  0.18383720  0.14729498     0.01800
C177        C  0.44346641  0.22501077  0.15221698    -0.18700
C178        C  0.46767403  0.25805257  0.13587990     0.01800
C179        C  0.48113805  0.24966101  0.11273702     0.01800
C180        C  0.47255849  0.20911137  0.10697670    -0.18700
H181        H  0.48057453  0.20269313  0.08830070     0.03800
H182        H  0.43026764  0.23189709  0.16875262     0.03800
C183        C  0.60651556  0.82172698  0.35778362     0.01800
C184        C  0.60045828  0.82723012  0.38380662     0.01800
C185        C  0.59232097  0.79482495  0.40097491    -0.18700
C186        C  0.58474167  0.75543573  0.39248639     0.01800
C187        C  0.58926192  0.74905456  0.36667960     0.01800
C188        C  0.60347735  0.78304991  0.35001196    -0.18700
H189        H  0.60656850  0.77761611  0.33009382     0.03800
H190        H  0.58706041  0.79885653  0.42080610     0.03800
Zr191      Zr  0.50638759  0.06929515  0.24706519     2.17500
O192        O  0.49743960  0.13159432  0.25330876    -0.51800
O193        O  0.54825462  0.11511859  0.21257768    -0.75000
O194        O  0.55033462  0.11779887  0.28126369    -0.81800
O195        O  0.41921802  0.02253479  0.19961750    -0.83500
O196        O  0.58209250  0.08791329  0.30443590    -0.79100
O197        O  0.44079743  0.06603665  0.23327622    -0.90800
O198        O  0.57678602  0.08063798  0.19111975    -0.76700
O199        O  0.56457762  0.05532089  0.24764449    -0.86200
O200        O  0.49879580  0.02811252  0.20976476    -0.85900
O201        O  0.49864589  0.03167652  0.28598437    -0.72700
O202        O  0.44007432  0.00646759  0.24900659    -0.84800
Zr203      Zr  0.48592309  0.91528047  0.25030507     2.26400
Zr204      Zr  0.55702393  0.01703962  0.28624571     2.06300
Zr205      Zr  0.43337341  0.96500145  0.21179640     2.10000
Zr206      Zr  0.55683827  0.01429132  0.21052812     1.78800
O207        O  0.35756399  0.93231250  0.21525436    -0.93600
O208        O  0.63289198  0.05147153  0.21259414    -0.41400
O209        O  0.49198118  0.95159207  0.21163774    -0.78100
O210        O  0.55230963  0.97705770  0.24874503    -0.96700
O211        O  0.49180607  0.95462305  0.28770444    -0.90000
O212        O  0.42664209  0.92736594  0.25007174    -0.92900
C213        C  0.57068235  0.11234687  0.19456161     1.00900
C214        C  0.42296828  0.05511568  0.21151594     1.13800
C215        C  0.57483065  0.11898948  0.29959980     1.04600
O216        O  0.63302414  0.05093535  0.28551557    -0.95000
O217        O  0.57593983  0.96237868  0.29898744    -0.90800
O218        O  0.53167628  0.90341260  0.27815284    -0.83900
C219        C  0.56152126  0.92320081  0.29370456     1.11200
O220        O  0.40267329  0.01089202  0.30242678    -0.97000
Zr221      Zr  0.43370164  0.96807875  0.28704359     1.88900
O222        O  0.44090681  0.86579499  0.28138754    -0.73700
O223        O  0.55006450  0.00739244  0.33203324    -0.52900
O224        O  0.44371058  0.97877710  0.33270177    -0.97600
O225        O  0.35779215  0.93519092  0.28367093    -0.54800
O226        O  0.41310802  0.89913411  0.30476976    -0.74200
C227        C  0.41880278  0.86738933  0.29993516     0.98200
O228        O  0.51688445  0.87661449  0.22874826    -0.63000
O229        O  0.42990378  0.96736442  0.16561498    -0.57800
O230        O  0.43923340  0.86180660  0.22075528    -0.94500
O231        O  0.41172992  0.89297674  0.19494133    -0.92900
O232        O  0.54491532  0.00149719  0.16514113    -0.93300
O233        O  0.58717043  0.97169799  0.19359226    -0.92100
C234        C  0.41711837  0.86112533  0.20135905     1.17000
H235        H  0.49838688  0.04266862  0.19448476     0.32900
H236        H  0.57471121  0.96957477  0.24882003     0.43800
H237        H  0.40092405  0.90141609  0.25022727     0.37300
H238        H  0.49934750  0.04822060  0.30051652     0.33800
H239        H  0.64175547  0.06057716  0.19494320     0.25600
H240        H  0.57884719  0.02330914  0.33874266     0.31500
H241        H  0.45301542  0.95837474  0.33855264     0.37400
H242        H  0.51730343  0.97653845  0.16368504     0.31900
H243        H  0.45209241  0.99540833  0.16084265     0.30800
H244        H  0.35035754  0.95553742  0.21390885     0.32500
H245        H  0.34878206  0.90496099  0.28171664     0.31400
H246        H  0.60306107  0.96785289  0.20779619     0.35400
H247        H  0.51522466  0.88193954  0.21044944     0.28200
H248        H  0.52535194  0.15592192  0.25117696     0.32400
H249        H  0.40798969  0.03169513  0.28884357     0.35200
H250        H  0.44014959  0.94798834  0.15933666     0.27900
H251        H  0.54715973  0.89203300  0.23256526     0.40700
H252        H  0.64074002  0.07052151  0.27102316     0.30800
H253        H  0.63954730  0.07764926  0.22185518     0.38400
H254        H  0.35227794  0.94405460  0.26691357     0.30200
H255        H  0.53552449  0.02339498  0.33757512     0.30300
H256        H  0.49024138  0.13181301  0.27138981     0.30600
Zr257      Zr  0.46244772  0.53144904  0.26450344     2.17500
O258        O  0.43378404  0.57698643  0.27892098    -0.51800
O259        O  0.39673602  0.48472337  0.28528882    -0.75000
O260        O  0.43155071  0.55328629  0.22817546    -0.81800
O261        O  0.54129731  0.56346318  0.32172373    -0.83500
O262        O  0.44395783  0.52850465  0.19120619    -0.79100
O263        O  0.49977994  0.58276466  0.29855075    -0.90800
O264        O  0.38644033  0.41822036  0.28351750    -0.76700
O265        O  0.43742187  0.46987297  0.23898668    -0.86200
O266        O  0.46977132  0.47989166  0.28998387    -0.85900
O267        O  0.50648054  0.55149364  0.22764885    -0.72700
O268        O  0.53482350  0.55588942  0.27431359    -0.84800
Zr269      Zr  0.56199007  0.46441398  0.23787808     2.26400
Zr270      Zr  0.48199067  0.48901135  0.20249354     2.06300
Zr271      Zr  0.54227773  0.50488245  0.29967869     2.10000
Zr272      Zr  0.44587232  0.41912196  0.26412948     1.78800
O273        O  0.60920769  0.54007715  0.32150778    -0.93600
O274        O  0.38661336  0.37225523  0.23812628    -0.41400
O275        O  0.51779922  0.44368695  0.27431971    -0.78100
O276        O  0.48856479  0.43665877  0.22785515    -0.96700
O277        O  0.55461568  0.51550154  0.21257013    -0.90000
O278        O  0.58734460  0.52556576  0.26347068    -0.92900
C279        C  0.37562359  0.44550326  0.29021916     1.00900
C280        C  0.52582810  0.58835145  0.31690540     1.13800
C281        C  0.42915620  0.54942455  0.20364328     1.04600
O282        O  0.41772106  0.44278236  0.18035103    -0.95000
O283        O  0.49319328  0.43875365  0.17662285    -0.90800
O284        O  0.54130069  0.42665450  0.19784546    -0.83900
C285        C  0.51558669  0.41978486  0.17933606     1.11200
O286        O  0.58646942  0.64454052  0.25042290    -0.97000
Zr287      Zr  0.57847042  0.57615382  0.23834976     1.88900
O288        O  0.62834287  0.51067580  0.21790108    -0.73700
O289        O  0.51881160  0.52946820  0.16544899    -0.52900
O290        O  0.58409973  0.62055454  0.20220307    -0.97600
O291        O  0.64309816  0.61888284  0.26135811    -0.54800
O292        O  0.62879038  0.57265658  0.21073789    -0.74200
C293        C  0.64329665  0.54687961  0.20751461     0.98200
O294        O  0.58614269  0.41176217  0.23458952    -0.63000
O295        O  0.50609588  0.47327438  0.33899592    -0.57800
O296        O  0.59030055  0.43912922  0.27301210    -0.94500
O297        O  0.57172772  0.45767782  0.31009344    -0.92900
O298        O  0.43746967  0.38142879  0.30378078    -0.93300
O299        O  0.44241752  0.35078744  0.25795863    -0.92100
C300        C  0.58830202  0.43869395  0.29748291     1.17000
H301        H  0.45458949  0.47471140  0.30570503     0.32900
H302        H  0.47729232  0.40990762  0.21952382     0.43800
H303        H  0.61612632  0.53476549  0.26827138     0.37300
H304        H  0.50540564  0.57415539  0.21856127     0.33800
H305        H  0.36791915  0.38537959  0.23736723     0.25600
H306        H  0.54014307  0.52037293  0.16159142     0.31500
H307        H  0.58037767  0.60285446  0.18711914     0.37400
H308        H  0.44418275  0.40264957  0.31725546     0.31900
H309        H  0.51281723  0.45012906  0.34247473     0.30800
H310        H  0.60294251  0.53075774  0.33935546     0.32500
H311        H  0.66308450  0.60901310  0.25568494     0.31400
H312        H  0.47162910  0.35579070  0.26003143     0.35400
H313        H  0.56101407  0.38520709  0.23052581     0.28200
H314        H  0.40383001  0.56246828  0.27417340     0.32400
H315        H  0.56998976  0.63961851  0.26615148     0.35200
H316        H  0.52138394  0.49429624  0.35225795     0.27900
H317        H  0.60356142  0.41883480  0.21916074     0.40700
H318        H  0.42082255  0.45506999  0.16320850     0.30800
H319        H  0.39790493  0.37539252  0.22074231     0.38400
H320        H  0.63696993  0.60958071  0.27920992     0.30200
H321        H  0.49831920  0.51800415  0.15139497     0.30300
H322        H  0.44621618  0.60183809  0.26777244     0.30600
Zr323      Zr  0.49974425  0.91745551  0.49727460     2.17500
O324        O  0.54054172  0.88213240  0.01201690    -0.51800
O325        O  0.44921218  0.86455169  0.47003033    -0.75000
O326        O  0.45932022  0.86164361  0.02899258    -0.81800
O327        O  0.57021850  0.97251502  0.43932524    -0.83500
O328        O  0.42529112  0.88758683  0.05366012    -0.79100
O329        O  0.54032155  0.91185446  0.46217347    -0.90800
O330        O  0.40957890  0.89130543  0.45201482    -0.76700
O331        O  0.43709891  0.92047906  0.00236689    -0.86200
O332        O  0.49167134  0.95523149  0.46207331    -0.85900
O333        O  0.51101316  0.95536137  0.03539003    -0.72700
O334        O  0.56142665  0.98447100  0.49473494    -0.84800
Zr335      Zr  0.50067484  0.06501312  0.00202831     2.26400
Zr336      Zr  0.44760212  0.96027097  0.04007927     2.06300
Zr337      Zr  0.55226030  0.02200082  0.45943729     2.10000
Zr338      Zr  0.42954825  0.96015862  0.46930680     1.78800
O339        O  0.62750201  0.05378734  0.45325793    -0.93600
O340        O  0.35814885  0.92299075  0.48489147    -0.41400
O341        O  0.48961742  0.02780297  0.46553515    -0.78100
O342        O  0.43902871  0.99774275  0.00449311    -0.96700
O343        O  0.50758432  0.02757635  0.03763338    -0.90000
O344        O  0.56510961  0.06053298  0.49771659    -0.92900
C345        C  0.42047411  0.86245611  0.45491574     1.00900
C346        C  0.56195097  0.93454756  0.44357971     1.13800
C347        C  0.43416602  0.85815177  0.04738548     1.04600
O348        O  0.37191054  0.93170831  0.03924533    -0.95000
O349        O  0.43970970  0.01341320  0.06365676    -0.90800
O350        O  0.46568892  0.07284390  0.03963268    -0.83900
C351        C  0.44836942  0.05157167  0.05971209     1.11200
O352        O  0.60954178  0.98913835  0.04889368    -0.97000
Zr353      Zr  0.57027216  0.02342587  0.03236777     1.88900
O354        O  0.55266635  0.12103109  0.02715203    -0.73700
O355        O  0.45227126  0.95524352  0.08602550    -0.52900
O356        O  0.57003100  0.02179157  0.07855724    -0.97600
O357        O  0.64394849  0.06083710  0.02116438    -0.54800
O358        O  0.59115818  0.09406890  0.04657806    -0.74200
C359        C  0.58163235  0.12357782  0.04225325     0.98200
O360        O  0.46333631  0.10306889  0.49259851    -0.63000
O361        O  0.53373130  0.02121035  0.41488421    -0.57800
O362        O  0.54225616  0.12102745  0.47147914    -0.94500
O363        O  0.57642266  0.09539893  0.44667656    -0.92900
O364        O  0.41983883  0.96037624  0.42360750    -0.93300
O365        O  0.39037948  0.99612434  0.45535652    -0.92100
C366        C  0.56763134  0.12484249  0.45313896     1.17000
H367        H  0.48870297  0.94049551  0.44633116     0.32900
H368        H  0.41468460  0.00175761  0.00707384     0.43800
H369        H  0.58918121  0.08760458  0.49602124     0.37300
H370        H  0.51470733  0.94018996  0.04943649     0.33800
H371        H  0.34046037  0.91520827  0.46944009     0.25600
H372        H  0.42381138  0.93502914  0.09152731     0.31500
H373        H  0.54432972  0.99621555  0.08310424     0.37400
H374        H  0.44816286  0.97035841  0.41650235     0.31900
H375        H  0.52110889  0.04031958  0.41373856     0.30800
H376        H  0.63658374  0.03593020  0.46295711     0.32500
H377        H  0.64862848  0.08877956  0.01544643     0.31400
H378        H  0.40912565  0.02598937  0.45894337     0.35400
H379        H  0.46389286  0.10414774  0.47383509     0.28200
H380        H  0.52280900  0.85212694  0.00822236     0.32400
H381        H  0.60656316  0.96842925  0.03571222     0.35200
H382        H  0.56081179  0.03610325  0.40603293     0.27900
H383        H  0.43401060  0.08323567  0.49669008     0.40700
H384        H  0.36473637  0.93819003  0.05619321     0.30800
H385        H  0.35539063  0.89614621  0.49144885     0.38400
H386        H  0.64630263  0.04691493  0.00554779     0.30200
H387        H  0.46943200  0.94079321  0.08891737     0.30300
H388        H  0.54046719  0.88409101  0.03074875     0.30600
Zr389      Zr  0.45214298  0.52697580  0.48766818     2.17500
O390        O  0.38814880  0.53199809  0.98161613    -0.51800
O391        O  0.48147651  0.59135747  0.46309152    -0.75000
O392        O  0.43284695  0.55578036  0.02487845    -0.81800
O393        O  0.42907675  0.45001530  0.43085300    -0.83500
O394        O  0.46923237  0.55410572  0.05983294    -0.79100
O395        O  0.40327140  0.48618026  0.45395856    -0.90800
O396        O  0.54350087  0.62161401  0.48187803    -0.76700
O397        O  0.51798352  0.56634594  0.00721540    -0.86200
O398        O  0.50428321  0.53080195  0.45783416    -0.85900
O399        O  0.45130357  0.48844324  0.02583942    -0.72700
O400        O  0.44156610  0.45739696  0.47909475    -0.84800
Zr401      Zr  0.55954229  0.46439954  0.00767552     2.26400
Zr402      Zr  0.51861467  0.52959125  0.04499798     2.06300
Zr403      Zr  0.49479300  0.46132376  0.45042585     2.10000
Zr404      Zr  0.56929150  0.57151343  0.47864765     1.78800
O405        O  0.45821458  0.39256124  0.43085400    -0.93600
O406        O  0.62686739  0.62867624  0.50075671    -0.41400
O407        O  0.56082906  0.50271402  0.47045929    -0.78100
O408        O  0.57134813  0.53479113  0.01499824    -0.96700
O409        O  0.50826756  0.46002152  0.03776716    -0.90000
O410        O  0.49389881  0.42445166  0.48818301    -0.92900
C411        C  0.51790918  0.62227127  0.46551898     1.00900
C412        C  0.40111752  0.46158715  0.43566650     1.13800
C413        C  0.44172838  0.56199852  0.04883786     1.04600
O414        O  0.55564751  0.60004893  0.06210466    -0.95000
O415        O  0.58110543  0.53549001  0.06668609    -0.90800
O416        O  0.60420268  0.49638085  0.04460818    -0.83900
C417        C  0.60762959  0.52172788  0.06269642     1.11400
O418        O  0.36725407  0.39502848  0.02316820    -0.97000
Zr419      Zr  0.44213296  0.41944752  0.01844686     1.88900
O420        O  0.53695121  0.40012048  0.03115415    -0.73700
O421        O  0.49396593  0.49700428  0.08623048    -0.52900
O422        O  0.42025574  0.40843540  0.06270067    -0.97600
O423        O  0.39810745  0.35484448  0.99577477    -0.54800
O424        O  0.46727130  0.37459409  0.03688625    -0.74200
C425        C  0.50156672  0.37278628  0.03954076     0.98200
O426        O  0.62767691  0.46739714  0.50608891    -0.63000
O427        O  0.52243318  0.49581910  0.41007904    -0.57800
O428        O  0.57891676  0.43253611  0.47340631    -0.94500
O429        O  0.54282925  0.43322175  0.43811359    -0.92900
O430        O  0.57969781  0.59430178  0.43454872    -0.93300
O431        O  0.64047141  0.59512142  0.46393370    -0.92100
C432        C  0.56959811  0.42478592  0.44964910     1.17000
H433        H  0.50208709  0.54295045  0.44193691     0.32900
H434        H  0.59922859  0.55234038  0.02121694     0.43800
H435        H  0.49068932  0.39705979  0.48411399     0.37300
H436        H  0.42882235  0.48560584  0.03678150     0.33800
H437        H  0.62881697  0.65443718  0.49293885     0.25600
H438        H  0.50639806  0.47790738  0.08857981     0.31500
H439        H  0.42035208  0.43463798  0.06822379     0.37400
H440        H  0.58278768  0.57210088  0.42527376     0.31900
H441        H  0.52409889  0.47411432  0.39941750     0.30800
H442        H  0.46685444  0.39711105  0.41284861     0.32500
H443        H  0.41728184  0.34416439  0.98981577     0.31400
H444        H  0.64707136  0.57231804  0.46869872     0.35400
H445        H  0.64849429  0.49719297  0.50776373     0.28200
H446        H  0.39332786  0.55968546  0.48459702     0.32400
H447        H  0.35653654  0.36832397  0.03258434     0.35200
H448        H  0.49958276  0.49994989  0.40238694     0.27900
H449        H  0.63426227  0.45727064  0.01734316     0.40700
H450        H  0.55392192  0.61826738  0.04861192     0.30800
H451        H  0.61623607  0.62847267  0.51805063     0.38400
H452        H  0.38943909  0.36396076  0.98011763     0.30200
H453        H  0.50879472  0.51972542  0.09866198     0.30300
H454        H  0.36965096  0.51695449  0.99595889     0.30600
C455        C  0.67286170  0.32176534  0.39965240     0.45000
H456        H  0.67186606  0.32106524  0.42065848    -0.04000
C457        C  0.67421004  0.32156866  0.35051562     0.45100
H458        H  0.67517955  0.32201838  0.32951086    -0.04000
C459        C  0.64992986  0.27659823  0.38829684    -0.17700
C460        C  0.65098519  0.34627125  0.38771146    -0.17500
C461        C  0.71854364  0.34319279  0.38882023    -0.17800
C462        C  0.65083162  0.27617566  0.36189677    -0.17800
C463        C  0.65131265  0.34561761  0.36134190    -0.17400
C464        C  0.71915458  0.34342354  0.36238545    -0.17700
C465        C  0.61982521  0.42783302  0.41533854    -0.09600
C466        C  0.59122035  0.40496240  0.43444604     0.06600
C467        C  0.58424915  0.36360596  0.43880379    -0.03400
C468        C  0.60400497  0.34556181  0.42369356    -0.07800
C469        C  0.63178970  0.36796006  0.40400164     0.05700
C470        C  0.64082389  0.41040199  0.40085156    -0.02800
Br471      Br  0.68545041  0.44806289  0.37967234    -0.02500
H472        H  0.62705051  0.46011980  0.41223322     0.09600
H473        H  0.59697712  0.31340247  0.42710260     0.07600
Br474      Br  0.54675270  0.33002517  0.46479522    -0.03000
C475        C  0.65042805  0.22925025  0.42418423    -0.09600
C476        C  0.62771546  0.23803381  0.40535206     0.06600
C477        C  0.58416513  0.21041336  0.40388802    -0.03400
C478        C  0.56510688  0.17491381  0.41992242    -0.07800
C479        C  0.58815362  0.16538656  0.43806754     0.05700
C480        C  0.63133209  0.19360550  0.44013038    -0.02800
Br481      Br  0.66535760  0.18524413  0.46515491    -0.02500
H482        H  0.68353820  0.25002092  0.42632619     0.09600
H483        H  0.53195609  0.15422796  0.41792787     0.07600
Br484      Br  0.54835419  0.22029952  0.38109197    -0.03000
C485        C  0.57846755  0.38516973  0.33080027    -0.09600
C486        C  0.60436874  0.41346064  0.31241337     0.06600
C487        C  0.64472301  0.41706187  0.30919511    -0.03400
C488        C  0.65870235  0.39404819  0.32472841    -0.07800
C489        C  0.63337822  0.36704586  0.34395163     0.05700
C490        C  0.59203259  0.36156137  0.34594279    -0.02800
Br491      Br  0.55085858  0.31943858  0.36693639    -0.02500
H492        H  0.54686974  0.38067974  0.33305618     0.09600
H493        H  0.69028040  0.39854223  0.32239162     0.07600
Br494      Br  0.68320357  0.45545730  0.28525262    -0.03000
C495        C  0.63698073  0.20108622  0.35250315    -0.09600
C496        C  0.63173388  0.23615616  0.34554536     0.06600
C497        C  0.60757901  0.23158315  0.32330187    -0.03400
C498        C  0.59055720  0.19414286  0.30892633    -0.07800
C499        C  0.59536341  0.15884027  0.31593906     0.05700
C500        C  0.61880972  0.16305652  0.33856623    -0.02800
Br501      Br  0.62617513  0.11800455  0.35279974    -0.02500
H502        H  0.65533991  0.20301004  0.36919254     0.09600
H503        H  0.57243001  0.19255736  0.29217870     0.07600
Br504      Br  0.59238546  0.27325694  0.31232979    -0.03000
C505        C  0.51592542  0.64720047  0.33458385    -0.09600
C506        C  0.54132093  0.62749461  0.33210599     0.06600
C507        C  0.58256164  0.64794104  0.34224172    -0.03400
C508        C  0.59714670  0.68669970  0.35431059    -0.07800
C509        C  0.57204810  0.70645329  0.35595846     0.05700
C510        C  0.53112592  0.68640049  0.34616499    -0.02800
Br511      Br  0.49570557  0.71254228  0.34732317    -0.02500
H512        H  0.48448258  0.63262652  0.32689234     0.09600
H513        H  0.62889021  0.70236354  0.36150723     0.07600
Br514      Br  0.62314521  0.62837965  0.33786580    -0.03000
C515        C  0.57273812  0.83065736  0.31925987    -0.09600
C516        C  0.60363061  0.84954663  0.33786616     0.06600
C517        C  0.62631569  0.89351468  0.33839896    -0.03400
C518        C  0.61308104  0.91735980  0.32343546    -0.07800
C519        C  0.57891755  0.89800752  0.30666718     0.05700
C520        C  0.56076063  0.85391714  0.30346952    -0.02800
Br521      Br  0.51800319  0.82078213  0.27923048    -0.02500
H522        H  0.55549795  0.79693805  0.31793937     0.09600
H523        H  0.62943970  0.95107479  0.32508700     0.07600
Br524      Br  0.67702656  0.92224173  0.35751047    -0.03000
C525        C  0.52421078  0.69896556  0.41409029    -0.09600
C526        C  0.56752144  0.72073004  0.41061678     0.06600
C527        C  0.59396591  0.71119788  0.42561652    -0.03400
C528        C  0.57693016  0.68033857  0.44405601    -0.07800
C529        C  0.53335423  0.65755140  0.44746250     0.05700
C530        C  0.50680559  0.66705972  0.43205510    -0.02800
Br531      Br  0.44704578  0.63906165  0.43473924    -0.02500
H532        H  0.50387439  0.70701002  0.40284623     0.09600
H533        H  0.59812257  0.67333751  0.45520964     0.07600
Br534      Br  0.65342133  0.73900167  0.42122255    -0.03000
C535        C  0.54662151  0.88796226  0.40705051    -0.09600
C536        C  0.57583890  0.91415434  0.42483063     0.06600
C537        C  0.61587118  0.91705143  0.42580778    -0.03400
C538        C  0.62466131  0.89023912  0.41085825    -0.07800
C539        C  0.59469552  0.86231440  0.39382720     0.05700
C540        C  0.55588459  0.86244763  0.39132872    -0.02800
Br541      Br  0.51268127  0.82569512  0.36880843    -0.02500
H542        H  0.51581777  0.88608422  0.40615222     0.09600
H543        H  0.65435785  0.89001331  0.41317063     0.07600
Br544      Br  0.65828090  0.95546909  0.44814789    -0.03000
C545        C  0.45742179  0.27186219  0.07528436    -0.09600
C546        C  0.49065582  0.27873299  0.09148967     0.06600
C547        C  0.53021578  0.31263594  0.08725045    -0.03400
C548        C  0.53430193  0.34265546  0.06917977    -0.07800
C549        C  0.49968287  0.33760949  0.05443639     0.05700
C550        C  0.46191378  0.30016931  0.05635552    -0.02800
Br551      Br  0.41542581  0.28479736  0.03353480    -0.02500
H552        H  0.42747448  0.24440751  0.07764713     0.09600
H553        H  0.56411664  0.37034900  0.06718257     0.07600
Br554      Br  0.57915569  0.31792127  0.10451673    -0.03000
C555        C  0.46084373  0.32379810  0.13685970    -0.09600
C556        C  0.48208379  0.30152000  0.14429795     0.06600
C557        C  0.51816176  0.32123313  0.15934705    -0.03400
C558        C  0.53087209  0.36159520  0.16821391    -0.07800
C559        C  0.50779828  0.38325576  0.16285061     0.05700
C560        C  0.47360689  0.36460054  0.14569332    -0.02800
Br561      Br  0.44295083  0.39225235  0.13315162    -0.02500
H562        H  0.43400236  0.30920588  0.12435165     0.09600
H563        H  0.55799116  0.37507111  0.18053798     0.07600
Br564      Br  0.55054821  0.29376693  0.16913723    -0.03000
C565        C  0.42605019  0.12493452  0.20857494    -0.09600
C566        C  0.41014741  0.08423694  0.19882715     0.06600
C567        C  0.38942418  0.07579184  0.17515818    -0.03400
C568        C  0.39194781  0.10897601  0.16026555    -0.07800
C569        C  0.41796904  0.15073899  0.16739727     0.05700
C570        C  0.43112978  0.15834325  0.19316670    -0.02800
Br571      Br  0.46089281  0.21241926  0.20902405    -0.02500
H572        H  0.43880670  0.13189632  0.22756270     0.09600
H573        H  0.37626735  0.10193180  0.14207338     0.07600
Br574      Br  0.35923493  0.02055354  0.16126691    -0.03000
C575        C  0.41136049  0.08856944  0.07690943    -0.09600
C576        C  0.44059912  0.07389138  0.08044954     0.06600
C577        C  0.46712190  0.08670457  0.10190243    -0.03400
C578        C  0.46681916  0.11715542  0.11814347    -0.07800
C579        C  0.44012616  0.13464684  0.11321281     0.05700
C580        C  0.41083033  0.11866528  0.09320139    -0.02800
Br581      Br  0.37321426  0.14111739  0.08558396    -0.02500
H582        H  0.39088220  0.07873592  0.06048676     0.09600
H583        H  0.48999697  0.12991748  0.13312553     0.07600
Br584      Br  0.50917685  0.06908530  0.10720070    -0.03000
C585        C  0.60699746  0.21376559  0.15669854    -0.09600
C586        C  0.64161681  0.21474275  0.14423501     0.06600
C587        C  0.65034041  0.18093993  0.14691520    -0.03400
C588        C  0.62586783  0.14785915  0.16266697    -0.07800
C589        C  0.59243753  0.14741478  0.17647937     0.05700
C590        C  0.58218606  0.18030902  0.17259965    -0.02800
Br591      Br  0.53537617  0.18188124  0.18814056    -0.02500
H592        H  0.60034141  0.23995632  0.15485352     0.09600
H593        H  0.63466141  0.12318444  0.16493656     0.07600
Br594      Br  0.69799726  0.17991904  0.13190054    -0.03000
C595        C  0.64980955  0.17755410  0.05726364    -0.09600
C596        C  0.60664265  0.16304685  0.05572297     0.06600
C597        C  0.58851774  0.18451848  0.06881035    -0.03400
C598        C  0.61286979  0.21672450  0.08559166    -0.07800
C599        C  0.65572391  0.22958871  0.08821511     0.05700
C600        C  0.67460696  0.21128895  0.07269291    -0.02800
Br601      Br  0.73364729  0.22926174  0.07208495    -0.02500
H602        H  0.66430596  0.16220409  0.04653999     0.09600
H603        H  0.59841115  0.23179234  0.09659947     0.07600
Br604      Br  0.53106974  0.17100775  0.06476567    -0.03000
C605        C  0.77742862  0.37975291  0.16885959    -0.09600
C606        C  0.77100720  0.33990779  0.16169061     0.06600
C607        C  0.79157446  0.32116506  0.17537344    -0.03400
C608        C  0.82406287  0.34536902  0.19181915    -0.07800
C609        C  0.83331984  0.38673659  0.19737633     0.05700
C610        C  0.80645091  0.40204790  0.18786059    -0.02800
Br611      Br  0.80364548  0.44933085  0.20209468    -0.02500
H612        H  0.75832105  0.39254738  0.16058186     0.09600
H613        H  0.84180928  0.33149476  0.20065481     0.07600
Br614      Br  0.77548636  0.26250911  0.17396684    -0.03000
C615        C  0.80482902  0.36920887  0.31077333    -0.09600
C616        C  0.83371604  0.41107790  0.31599272     0.06600
C617        C  0.82454106  0.43044370  0.33660199    -0.03400
C618        C  0.78755806  0.40859737  0.35108098    -0.07800
C619        C  0.75860604  0.36642707  0.34604822     0.05700
C620        C  0.76807160  0.34713192  0.32536959    -0.02800
Br621      Br  0.73377928  0.28935612  0.31729707    -0.02500
H622        H  0.81131337  0.35312239  0.29547160     0.09600
H623        H  0.78160819  0.42470505  0.36658619     0.07600
Br624      Br  0.86277303  0.48658159  0.34616273    -0.03000
C625        C  0.78589539  0.38873618  0.09078215    -0.09600
C626        C  0.78496666  0.35508652  0.10466810     0.06600
C627        C  0.81736417  0.34437860  0.10127776    -0.03400
C628        C  0.84943280  0.36667552  0.08440653    -0.07800
C629        C  0.84977455  0.39907287  0.06945101     0.05700
C630        C  0.81765364  0.41060268  0.07312701    -0.02800
Br631      Br  0.81390844  0.45449396  0.05451247    -0.02500
H632        H  0.76032314  0.39632233  0.09255440     0.09600
H633        H  0.87317328  0.35664173  0.08204069     0.07600
Br634      Br  0.81694077  0.29563138  0.11569907    -0.03000
C635        C  0.79212440  0.35425818  0.39912065    -0.09600
C636        C  0.75790770  0.36100691  0.40567007     0.06600
C637        C  0.76270136  0.38491705  0.42798410    -0.03400
C638        C  0.79978997  0.40050230  0.44271349    -0.07800
C639        C  0.83450165  0.39472303  0.43580579     0.05700
C640        C  0.82991536  0.37135849  0.41320825    -0.02800
Br641      Br  0.87413745  0.36278572  0.39903171    -0.02500
H642        H  0.78982557  0.33577634  0.38248679     0.09600
H643        H  0.80174591  0.41853759  0.45951671     0.07600
Br644      Br  0.72208198  0.40161840  0.43869952    -0.03000
C645        C  0.91871196  0.62927200  0.15239969    -0.09600
C646        C  0.87607579  0.60199004  0.14870248     0.06600
C647        C  0.85833880  0.56233598  0.16022652    -0.03400
C648        C  0.88277343  0.55073788  0.17521580    -0.07800
C649        C  0.92493892  0.57783316  0.17982300     0.05700
C650        C  0.94329475  0.61753406  0.16800282    -0.02800
Br651      Br  0.00041562  0.65768610  0.17371353    -0.02500
H652        H  0.93255712  0.65984863  0.14362897     0.09600
H653        H  0.86875277  0.51980221  0.18318803     0.07600
Br654      Br  0.80103775  0.52143923  0.15503547    -0.03000
C655        C  0.87709116  0.56294873  0.09762131    -0.09600
C656        C  0.87363746  0.59914991  0.09214146     0.06600
C657        C  0.89663740  0.62491102  0.07187395    -0.03400
C658        C  0.92235010  0.61378386  0.05739201    -0.07800
C659        C  0.92604007  0.57790757  0.06353043     0.05700
C660        C  0.90440002  0.55329611  0.08430484    -0.02800
Br661      Br  0.91107633  0.50606105  0.09529507    -0.02500
H662        H  0.85819985  0.54164264  0.11215507     0.09600
H663        H  0.93886992  0.63262793  0.04121798     0.07600
Br664      Br  0.89319139  0.67472942  0.06311774    -0.03000
C665        C  0.71633196  0.54771959  0.15616174    -0.09600
C666        C  0.74267647  0.59072786  0.15380327     0.06600
C667        C  0.73731571  0.61885384  0.16973949    -0.03400
C668        C  0.70574444  0.60364238  0.18780200    -0.07800
C669        C  0.67894439  0.56047091  0.19015634     0.05700
C670        C  0.68436783  0.53235159  0.17395029    -0.02800
Br671      Br  0.64784487  0.47324382  0.17345145    -0.02500
H672        H  0.72056629  0.52591976  0.14394812     0.09600
H673        H  0.70176730  0.62581592  0.19983327     0.07600
Br674      Br  0.77124163  0.67814995  0.16677054    -0.03000
C675        C  0.70351714  0.59485816  0.10160604    -0.09600
C676        C  0.72923961  0.57572066  0.09859944     0.06600
C677        C  0.71271815  0.53651449  0.08639800    -0.03400
C678        C  0.67236021  0.51869617  0.07618563    -0.07800
C679        C  0.64695569  0.53860374  0.07808305     0.05700
C680        C  0.66270932  0.57666583  0.09188818    -0.02800
Br681      Br  0.63185377  0.60697557  0.09799504    -0.02500
H682        H  0.71539974  0.62439485  0.11158370     0.09600
H683        H  0.66103699  0.48908220  0.06636851     0.07600
Br684      Br  0.74271502  0.50449456  0.08410875    -0.03000
C685        C  0.41080679  0.79807688  0.31384963    -0.09600
C686        C  0.39982761  0.83045147  0.31710610     0.06600
C687        C  0.37165480  0.82645603  0.33684479    -0.03400
C688        C  0.35571755  0.79113374  0.35237405    -0.07800
C689        C  0.36751503  0.75953882  0.34933506     0.05700
C690        C  0.39474774  0.76293743  0.32951278    -0.02800
Br691      Br  0.40912968  0.71935812  0.32208554    -0.02500
H692        H  0.43167577  0.79959190  0.29879452     0.09600
H693        H  0.33222873  0.78744597  0.36616381     0.07600
Br694      Br  0.35110913  0.86594406  0.34356315    -0.03000
C695        C  0.23393491  0.59542231  0.33498500    -0.09600
C696        C  0.24326591  0.63315003  0.34690521     0.06600
C697        C  0.21881319  0.65336452  0.34212459    -0.03400
C698        C  0.18442581  0.63488738  0.32609373    -0.07800
C699        C  0.17423912  0.59662234  0.31421933     0.05700
C700        C  0.19943932  0.57661919  0.31889533    -0.02800
Br701      Br  0.18874421  0.52322001  0.30519961    -0.02500
H702        H  0.25376202  0.58073277  0.33806413     0.09600
H703        H  0.16601513  0.65099309  0.32259185     0.07600
Br704      Br  0.23256867  0.70747881  0.35587734    -0.03000
C705        C  0.42342558  0.80530737  0.43043831    -0.09600
C706        C  0.39992782  0.82491420  0.43895297     0.06600
C707        C  0.35771573  0.80863440  0.43154873    -0.03400
C708        C  0.34036520  0.77436647  0.41536438    -0.07800
C709        C  0.36424388  0.75586236  0.40625430     0.05700
C710        C  0.40561355  0.77061509  0.41437785    -0.02800
Br711      Br  0.43724753  0.74227250  0.40543547    -0.02500
H712        H  0.45572848  0.81699063  0.43623830     0.09600
H713        H  0.30774073  0.76163256  0.40999054     0.07600
Br714      Br  0.32102359  0.82936119  0.44410531    -0.03000
C715        C  0.22176377  0.65040993  0.41373651    -0.09600
C716        C  0.24043896  0.62796905  0.40276070     0.06600
C717        C  0.22302527  0.58470367  0.40693525    -0.03400
C718        C  0.18798630  0.56482916  0.42268918    -0.07800
C719        C  0.16959223  0.58765416  0.43389024     0.05700
C720        C  0.18664988  0.63080165  0.42896859    -0.02800
Br721      Br  0.16555220  0.66569293  0.44378384    -0.02500
H722        H  0.23529183  0.68385114  0.41086680     0.09600
H723        H  0.17487909  0.53152602  0.42600338     0.07600
Br724      Br  0.24692150  0.55234739  0.39216581    -0.03000
C725        C  0.28405084  0.37911459  0.33274163    -0.09600
C726        C  0.27094550  0.40828203  0.33960796     0.06600
C727        C  0.29020435  0.44866673  0.32925835    -0.03400
C728        C  0.32336497  0.45971131  0.31256237    -0.07800
C729        C  0.33763101  0.43088484  0.30585796     0.05700
C730        C  0.31688931  0.38962929  0.31595726    -0.02800
Br731      Br  0.33072874  0.34515713  0.30905085    -0.02500
H732        H  0.26857815  0.34786889  0.34063600     0.09600
H733        H  0.33842284  0.49127656  0.30519058     0.07600
Br734      Br  0.27346268  0.49022111  0.33809562    -0.03000
C735        C  0.30795328  0.45101152  0.39706649    -0.09600
C736        C  0.28467472  0.40748841  0.39468737     0.06600
C737        C  0.30111981  0.38195146  0.40449880    -0.03400
C738        C  0.34017792  0.40019470  0.41673839    -0.07800
C739        C  0.36272181  0.44377777  0.41994511     0.05700
C740        C  0.34651971  0.46922182  0.40957027    -0.02800
Br741      Br  0.37607679  0.52901691  0.41144824    -0.02500
H742        H  0.29546410  0.47095218  0.38974462     0.09600
H743        H  0.35216039  0.38019826  0.42470181     0.07600
Br744      Br  0.27070026  0.32228709  0.40227199    -0.03000
C745        C  0.08196831  0.38123886  0.32136099    -0.09600
C746        C  0.08419550  0.42021533  0.32651767     0.06600
C747        C  0.10730728  0.44348407  0.34756515    -0.03400
C748        C  0.13215350  0.43009858  0.36116672    -0.07800
C749        C  0.13232935  0.39240767  0.35491255     0.05700
C750        C  0.10512106  0.36678777  0.33584531    -0.02800
Br751      Br  0.09907654  0.31217109  0.32900536    -0.02500
H752        H  0.06286547  0.36244873  0.30577211     0.09600
H753        H  0.15270781  0.45003105  0.37590152     0.07600
Br754      Br  0.10695457  0.49431114  0.35774967    -0.03000
C755        C  0.13467282  0.42707237  0.44159406    -0.09600
C756        C  0.09098452  0.40337715  0.43974387     0.06600
C757        C  0.07400536  0.36827438  0.42344470    -0.03400
C758        C  0.10093766  0.35872587  0.40903676    -0.07800
C759        C  0.14437021  0.38427653  0.41008683     0.05700
C760        C  0.16113217  0.41847332  0.42684282    -0.02800
Br761      Br  0.21933891  0.45868413  0.42850119    -0.02500
H762        H  0.14897794  0.45462138  0.45350142     0.09600
H763        H  0.08792977  0.33251595  0.39602194     0.07600
Br764      Br  0.01516622  0.33280494  0.41928911    -0.03000
C765        C  0.20996480  0.57552138  0.06017061    -0.09600
C766        C  0.17792143  0.58682012  0.06413908     0.06600
C767        C  0.18431569  0.61556849  0.08428148    -0.03400
C768        C  0.22111648  0.63166435  0.09918857    -0.07800
C769        C  0.25267810  0.61991130  0.09526864     0.05700
C770        C  0.24645339  0.59135220  0.07532518    -0.02800
Br771      Br  0.28483943  0.56978108  0.06875963    -0.02500
H772        H  0.20642222  0.55334222  0.04537646     0.09600
H773        H  0.22513401  0.65385999  0.11407872     0.07600
Br774      Br  0.14486010  0.63501824  0.09326125    -0.03000
C775        C  0.18852404  0.55552636  0.17173226    -0.09600
C776        C  0.17656747  0.58061964  0.18669866     0.06600
C777        C  0.20291452  0.62436590  0.18567464    -0.03400
C778        C  0.23918972  0.64186946  0.17021147    -0.07800
C779        C  0.25049079  0.61696861  0.15469555     0.05700
C780        C  0.22452203  0.57312926  0.15592112    -0.02800
Br781      Br  0.23807365  0.53576314  0.13707398    -0.02500
H782        H  0.16946948  0.52192730  0.17206839     0.09600
H783        H  0.25863836  0.67542503  0.17019753     0.07600
Br784      Br  0.19147161  0.66159896  0.20615698    -0.03000
C785        C  0.42763223  0.62163966  0.06087969    -0.09600
C786        C  0.41947324  0.58018886  0.06481365     0.06600
C787        C  0.39158366  0.55784796  0.08456790    -0.03400
C788        C  0.37342902  0.57721211  0.10001931    -0.07800
C789        C  0.38201882  0.61921983  0.09633365     0.05700
C790        C  0.40962204  0.64103454  0.07616151    -0.02800
Br791      Br  0.42764619  0.69871982  0.06923540    -0.02500
H792        H  0.44918574  0.63960694  0.04606167     0.09600
H793        H  0.35173110  0.55895017  0.11468153     0.07600
Br794      Br  0.37548615  0.49994491  0.09014094    -0.03000
C795        C  0.43612332  0.60276533  0.17038974    -0.09600
C796        C  0.41084063  0.57265883  0.18823689     0.06600
C797        C  0.36906664  0.56560945  0.19051298    -0.03400
C798        C  0.35328474  0.58699661  0.17469988    -0.07800
C799        C  0.37837992  0.61646157  0.15637233     0.05700
C800        C  0.42086163  0.62514713  0.15523340    -0.02800
Br801      Br  0.46098623  0.67046848  0.13550459    -0.02500
H802        H  0.46861975  0.60989959  0.16871954     0.09600
H803        H  0.32088877  0.58010241  0.17656034     0.07600
Br804      Br  0.33181301  0.52555976  0.21420116    -0.03000
C805        C  0.43722098  0.81315378  0.08349071    -0.09600
C806        C  0.41476409  0.81832602  0.06311856     0.06600
C807        C  0.37329390  0.78649155  0.05939687    -0.03400
C808        C  0.35541860  0.75104055  0.07563136    -0.07800
C809        C  0.37759684  0.74606669  0.09642776     0.05700
C810        C  0.41953019  0.77792667  0.09976855    -0.02800
Br811      Br  0.45644483  0.77371039  0.12447427    -0.02500
H812        H  0.46912180  0.83680230  0.08677355     0.09600
H813        H  0.32368441  0.72726244  0.07204400     0.07600
Br814      Br  0.33999827  0.79014897  0.03205502    -0.03000
C815        C  0.40885836  0.78888976  0.19198721    -0.09600
C816        C  0.39836721  0.82092111  0.18555302     0.06600
C817        C  0.37191785  0.81335660  0.16401889    -0.03400
C818        C  0.35804225  0.77594005  0.14974225    -0.07800
C819        C  0.36954543  0.74461736  0.15598890     0.05700
C820        C  0.39496279  0.75167685  0.17781515    -0.02800
Br821      Br  0.41558599  0.71382932  0.18841889    -0.02500
H822        H  0.42907952  0.79293006  0.20809721     0.09600
H823        H  0.33788557  0.77130652  0.13350762     0.07600
Br824      Br  0.35278023  0.85208083  0.15279675    -0.03000
C825        C  0.33544103  0.66218689  0.60116086     0.45000
H826        H  0.33561329  0.66267955  0.58011526    -0.04000
C827        C  0.33383541  0.66078997  0.65036174     0.45100
H828        H  0.33261075  0.65998764  0.67138735    -0.04000
C829        C  0.36002308  0.63999648  0.61256045    -0.17700
C830        C  0.35597097  0.70705388  0.61298319    -0.17500
C831        C  0.29002536  0.63865727  0.61219878    -0.17800
C832        C  0.35876296  0.63870429  0.63899914    -0.17800
C833        C  0.35439728  0.70637078  0.63930901    -0.17400
C834        C  0.28928065  0.63819858  0.63847621    -0.17700
C835        C  0.16532021  0.38173035  0.86170246     0.01800
C836        C  0.16968668  0.37745353  0.88811894     0.01800
C837        C  0.20547862  0.37584419  0.89735805    -0.18700
C838        C  0.24056641  0.38827760  0.88192911     0.01800
C839        C  0.23644032  0.39405455  0.85587154     0.01800
C840        C  0.19826096  0.38772013  0.84576916    -0.18700
H841        H  0.19593999  0.39254795  0.82561658     0.03800
H842        H  0.20867970  0.37231751  0.91755900     0.03800
C843        C  0.28103244  0.65497792  0.86079306     0.01800
C844        C  0.28154768  0.65162925  0.88738575     0.01800
C845        C  0.31636335  0.68011802  0.90094916    -0.18700
C846        C  0.34625537  0.71616857  0.88912067     0.01800
C847        C  0.34575907  0.71967961  0.86239554     0.01800
C848        C  0.31466622  0.68714100  0.84846046    -0.18700
H849        H  0.31269022  0.69062600  0.82811729     0.03800
H850        H  0.31568064  0.67870068  0.92152668     0.03800
C851        C  0.78042305  0.60925988  0.63592373     0.01800
C852        C  0.77315297  0.60027257  0.60974005     0.01800
C853        C  0.80693072  0.60602117  0.59427558    -0.18700
C854        C  0.84499049  0.61241838  0.60519420     0.01800
C855        C  0.85043166  0.61727924  0.63179006     0.01800
C856        C  0.82005624  0.62103713  0.64620044    -0.18700
H857        H  0.82407776  0.62400917  0.66664662     0.03800
H858        H  0.80165318  0.59925670  0.57416282     0.03800
Zr859      Zr  0.92953559  0.48403463  0.50167291     2.17500
O860        O  0.88845302  0.51845009  0.98662225    -0.51800
O861        O  0.87962285  0.43799847  0.53269893    -0.75000
O862        O  0.87790970  0.44160111  0.96999383    -0.81800
O863        O  0.98378567  0.57288323  0.55068461    -0.83500
O864        O  0.90744679  0.41160832  0.94513914    -0.79100
O865        O  0.92229379  0.53269264  0.53001640    -0.90800
O866        O  0.91226313  0.40784330  0.55480094    -0.76700
O867        O  0.94160037  0.42652454  0.99930193    -0.86200
O868        O  0.96988321  0.48734930  0.53845817    -0.85900
O869        O  0.96903550  0.49579887  0.96243330    -0.72700
O870        O  0.99406385  0.54839982  0.50011016    -0.84800
Zr871      Zr  0.08445215  0.50026860  0.99679786     2.26400
Zr872      Zr  0.97958838  0.43517706  0.96080946     2.06300
Zr873      Zr  0.03437681  0.55058394  0.53713699     2.10000
Zr874      Zr  0.97987300  0.42713853  0.53718165     1.78800
O875        O  0.06907361  0.62667080  0.53706113    -0.93600
O876        O  0.94549796  0.35200631  0.52962578    -0.41400
O877        O  0.04484572  0.49004907  0.53680187    -0.78100
O878        O  0.02003686  0.43580546  0.99749878    -0.96700
O879        O  0.04455802  0.49830959  0.96012429    -0.90000
O880        O  0.07293044  0.55753658  0.49927733    -0.92900
C881        C  0.88120718  0.41500950  0.55079834     1.00900
C882        C  0.94502959  0.56095086  0.54600263     1.13800
C883        C  0.87614926  0.41770883  0.95121453     1.04600
O884        O  0.94727556  0.35920132  0.96046979    -0.95000
O885        O  0.03008468  0.41442948  0.94468450    -0.90800
O886        O  0.08986536  0.45318210  0.96665960    -0.83900
C887        C  0.06860252  0.42586247  0.94982932     1.11200
O888        O  0.99459998  0.59177720  0.94527262    -0.97000
Zr889      Zr  0.03474977  0.55852761  0.96198454     1.88900
O890        O  0.13437291  0.54614667  0.96604656    -0.73700
O891        O  0.98519567  0.44340178  0.91487577    -0.52900
O892        O  0.02754898  0.54862039  0.91621276    -0.97600
O893        O  0.06741706  0.63404303  0.96771270    -0.54800
O894        O  0.10436941  0.58069760  0.94530344    -0.74200
C895        C  0.13449322  0.57193342  0.94924893     0.98200
O896        O  0.12816028  0.47101899  0.51654343    -0.63000
O897        O  0.03144799  0.54544349  0.58328908    -0.57800
O898        O  0.13456823  0.54027519  0.53045767    -0.94500
O899        O  0.10477165  0.57122104  0.55426788    -0.92900
O900        O  0.98662689  0.43431988  0.58310937    -0.93300
O901        O  0.01888226  0.39469303  0.55663001    -0.92100
C902        C  0.13574650  0.56424667  0.54897090     1.17000
H903        H  0.95536576  0.48736217  0.55369004     0.32900
H904        H  0.02584586  0.41232276  0.99659067     0.43800
H905        H  0.09958907  0.58237921  0.49959425     0.37300
H906        H  0.95232812  0.49621466  0.94818744     0.33800
H907        H  0.91847425  0.34589976  0.52154782     0.25600
H908        H  0.97200676  0.41453558  0.90810512     0.31500
H909        H  0.04777650  0.57585271  0.90902042     0.37400
H910        H  0.01342636  0.45979783  0.58599828     0.31900
H911        H  0.03712085  0.57358070  0.58921795     0.30800
H912        H  0.09691801  0.63496394  0.52962718     0.32500
H913        H  0.07807912  0.64564857  0.95071321     0.31400
H914        H  0.04264326  0.40134097  0.54507420     0.35400
H915        H  0.11093125  0.44033269  0.51772877     0.28200
H916        H  0.85938728  0.49774351  0.99066411     0.32400
H917        H  0.97798275  0.59290971  0.95985433     0.35200
H918        H  0.00170512  0.52737352  0.58740950     0.27900
H919        H  0.14900952  0.47531628  0.50323379     0.40700
H920        H  0.93820238  0.35125888  0.94268183     0.30800
H921        H  0.96177662  0.34768747  0.51595226     0.38400
H922        H  0.09278587  0.64114334  0.97802024     0.30200
H923        H  0.96578502  0.45457198  0.91009266     0.30300
H924        H  0.88999086  0.51854376  0.96787654     0.30600
Zr925      Zr  0.07889160  0.50008050  0.75338283     2.17500
O926        O  0.11534982  0.46101869  0.74033827    -0.51800
O927        O  0.13298219  0.54877625  0.78065301    -0.75000
O928        O  0.13176231  0.53861088  0.71987478    -0.81800
O929        O  0.02561351  0.42607736  0.80999309    -0.83500
O930        O  0.10648755  0.57445132  0.69609071    -0.79100
O931        O  0.08501706  0.45571171  0.78611545    -0.90800
O932        O  0.10673537  0.58625422  0.80133022    -0.76700
O933        O  0.07440213  0.56342504  0.74863416    -0.86200
O934        O  0.04296383  0.50648800  0.78992826    -0.85900
O935        O  0.03951984  0.48948359  0.71520094    -0.72700
O936        O  0.01180121  0.43880506  0.75604732    -0.84800
Zr937      Zr  0.93079257  0.49933914  0.74934482     2.26400
Zr938      Zr  0.03439503  0.55272200  0.71068601     2.06300
Zr939      Zr  0.97582624  0.44662463  0.79237395     2.10000
Zr940      Zr  0.03789310  0.56900069  0.78485947     1.78800
O941        O  0.94197247  0.37108913  0.79760986    -0.93600
O942        O  0.07397543  0.64283565  0.77376680    -0.41400
O943        O  0.96994850  0.50959899  0.78777512    -0.78100
O944        O  0.99808219  0.56072373  0.74700081    -0.96700
O945        O  0.96674949  0.49275017  0.71295269    -0.90000
O946        O  0.93643618  0.43670239  0.75455590    -0.92900
C947        C  0.13534543  0.57535275  0.79735289     1.00900
C948        C  0.06295914  0.43328141  0.80465335     1.13800
C949        C  0.13541527  0.56428473  0.70169262     1.04600
O950        O  0.06883522  0.62825346  0.70520067    -0.95000
O951        O  0.98523579  0.57214158  0.69097293    -0.90800
O952        O  0.92484480  0.53965839  0.71351000    -0.83900
C953        C  0.94701457  0.56293225  0.69510392     1.11200
O954        O  0.00722587  0.39205624  0.70203973    -0.97000
Zr955      Zr  0.97176630  0.43014366  0.71835797     1.88900
O956        O  0.87403160  0.44793916  0.72468849    -0.73700
O957        O  0.03276813  0.53515992  0.66595370    -0.52900
O958        O  0.97274055  0.43025575  0.67218699    -0.97600
O959        O  0.93761026  0.35613552  0.72920089    -0.54800
O960        O  0.89974689  0.40791265  0.70630606    -0.74200
C961        C  0.87043799  0.41774045  0.71054377     0.98200
O962        O  0.89659149  0.53990935  0.76357906    -0.63000
O963        O  0.97935284  0.46238053  0.83753165    -0.57800
O964        O  0.87704246  0.45853935  0.78212135    -0.94500
O965        O  0.90302181  0.42312768  0.80579993    -0.92900
O966        O  0.03399772  0.57021081  0.83096116    -0.93300
O967        O  0.00467202  0.60849658  0.80228583    -0.92100
C968        C  0.87350944  0.43229385  0.79999259     1.17000
H969        H  0.05819721  0.50801805  0.80532796     0.32900
H970        H  0.99410225  0.58519159  0.74479217     0.43800
H971        H  0.90940268  0.41257970  0.75623468     0.37300
H972        H  0.05432688  0.48582401  0.70101048     0.33800
H973        H  0.10042840  0.65434873  0.78355287     0.25600
H974        H  0.00272706  0.51947406  0.66156273     0.31500
H975        H  0.94840510  0.40366242  0.66718387     0.37400
H976        H  0.04447415  0.55086217  0.83706705     0.31900
H977        H  0.97015297  0.48418971  0.83883064     0.30800
H978        H  0.93765772  0.36669539  0.81612604     0.32500
H979        H  0.90821193  0.34910007  0.73275902     0.31400
H980        H  0.97459804  0.59128999  0.79843890     0.35400
H981        H  0.89966036  0.54091110  0.78226165     0.28200
H982        H  0.14532762  0.48015374  0.74337327     0.32400
H983        H  0.03321541  0.40239067  0.71223507     0.35200
H984        H  0.95639350  0.43728678  0.84525320     0.27900
H985        H  0.91529824  0.56887545  0.75810617     0.40700
H986        H  0.05026623  0.63777069  0.71354391     0.30800
H987        H  0.08261242  0.64343839  0.75594143     0.38400
H988        H  0.94941024  0.35480080  0.74595767     0.30200
H989        H  0.04265818  0.56213212  0.65694569     0.30300
H990        H  0.11232008  0.45870347  0.72165240     0.30600
C991        C  0.74273097  0.32735387  0.61738380     0.01800
C992        C  0.73541209  0.32149033  0.64376171     0.01800
C993        C  0.69805736  0.28887208  0.65232680    -0.18700
C994        C  0.67124227  0.25809619  0.63559323     0.01800
C995        C  0.67911695  0.26333198  0.60924468     0.01800
C996        C  0.71264060  0.29986083  0.60053016    -0.18700
H997        H  0.71803120  0.30438221  0.58026847     0.03800
H998        H  0.69253268  0.28446606  0.67259076     0.03800
C999        C  0.44196782  0.17451940  0.62107164     0.01800
C1000       C  0.42938598  0.18244663  0.64517402     0.01800
C1001       C  0.43795768  0.22390770  0.65042956    -0.18700
C1002       C  0.46221834  0.25673290  0.63400962     0.01800
C1003       C  0.47402950  0.24796304  0.61046688     0.01800
C1004       C  0.46433544  0.20732881  0.60440832    -0.18700
H1005       H  0.47224900  0.20085739  0.58566140     0.03800
H1006       H  0.42571004  0.23121689  0.66722418     0.03800
C1007       C  0.60849112  0.82241342  0.85699143     0.01800
C1008       C  0.60156423  0.82722934  0.88298220     0.01800
C1009       C  0.59151418  0.79391231  0.89977265    -0.18700
C1010       C  0.58308205  0.75446713  0.89092770     0.01800
C1011       C  0.58822577  0.74865061  0.86512344     0.01800
C1012       C  0.60444221  0.78340400  0.84894610    -0.18700
H1013       H  0.60834313  0.77849182  0.82906044     0.03800
H1014       H  0.58585465  0.79754277  0.91959557     0.03800
Zr1015     Zr  0.50625594  0.06911875  0.74870931     2.17500
O1016       O  0.47946714  0.11611017  0.76339079    -0.51800
O1017       O  0.55212797  0.11901335  0.71741544    -0.75000
O1018       O  0.55173034  0.12009235  0.78072016    -0.81800
O1019       O  0.41381909  0.01974263  0.70022511    -0.83500
O1020       O  0.58278736  0.08950235  0.80401724    -0.79100
O1021       O  0.45404809  0.07635002  0.72433769    -0.90800
O1022       O  0.58131692  0.08576206  0.69534893    -0.76700
O1023       O  0.56532245  0.05688529  0.74964070    -0.86200
O1024       O  0.50041134  0.02990680  0.71102471    -0.85900
O1025       O  0.49777806  0.03061205  0.78703108    -0.72700
O1026       O  0.44022763  0.00631957  0.74937966    -0.84800
Zr1027     Zr  0.48708974  0.91591491  0.75014642     2.26400
Zr1028     Zr  0.55674243  0.01713205  0.78754947     2.06300
Zr1029     Zr  0.43528171  0.96652955  0.71157324     2.10000
Zr1030     Zr  0.55918281  0.01727642  0.71224070     1.78800
O1031       O  0.35927880  0.93120680  0.71253819    -0.93600
O1032       O  0.63474556  0.05109352  0.71812419    -0.41400
O1033       O  0.49458373  0.95398544  0.71195205    -0.78100
O1034       O  0.55305751  0.97821484  0.74969018    -0.96700
O1035       O  0.49177820  0.95393245  0.78803955    -0.90000
O1036       O  0.42765648  0.92768014  0.74955107    -0.92900
C1037       C  0.57518056  0.11730716  0.69947393     1.00900
C1038       C  0.42529821  0.05738177  0.70783553     1.13800
C1039       C  0.57616300  0.12097708  0.79893692     1.04600
O1040       O  0.63242750  0.04595034  0.78726487    -0.95000
O1041       O  0.57573312  0.96293299  0.80060710    -0.90800
O1042       O  0.53520220  0.90567028  0.77716281    -0.83900
C1043       C  0.56337245  0.92468186  0.79388238     1.11200
O1044       O  0.39823597  0.00545794  0.80325671    -0.97000
Zr1045     Zr  0.43332260  0.96692691  0.78704946     1.88900
O1046       O  0.44158312  0.86601971  0.78090618    -0.73700
O1047       O  0.54895952  0.01082456  0.83348157    -0.52900
O1048       O  0.44180750  0.98016860  0.83257212    -0.97600
O1049       O  0.35761715  0.92948357  0.78219042    -0.54800
O1050       O  0.41667264  0.90007743  0.80591213    -0.74200
C1051       C  0.42127712  0.86805512  0.80030074     0.98200
O1052       O  0.51443598  0.87361460  0.72894092    -0.63000
O1053       O  0.43846759  0.97140470  0.66542799    -0.57800
O1054       O  0.44041930  0.86348363  0.71990342    -0.94500
O1055       O  0.41359035  0.89506814  0.69393876    -0.92900
O1056       O  0.55132626  0.01030470  0.66630299    -0.93300
O1057       O  0.59066799  0.97578909  0.69541982    -0.92100
C1058       C  0.41860719  0.86303594  0.70039550     1.17000
H1059       H  0.50086600  0.04564876  0.69611239     0.32900
H1060       H  0.57571929  0.97109851  0.74962898     0.43800
H1061       H  0.40209310  0.90161384  0.74927973     0.37300
H1062       H  0.49839486  0.04715356  0.80155831     0.33800
H1063       H  0.64615065  0.06880671  0.70290584     0.25600
H1064       H  0.57787241  0.02304056  0.84017260     0.31500
H1065       H  0.45318211  0.96181276  0.83914021     0.37400
H1066       H  0.53597731  0.02590687  0.66143218     0.31900
H1067       H  0.45543914  0.00150669  0.66170309     0.30800
H1068       H  0.35076707  0.93499602  0.69524747     0.32500
H1069       H  0.35049500  0.89953926  0.78148237     0.31400
H1070       H  0.56670569  0.94918929  0.69003060     0.35400
H1071       H  0.51363576  0.87907117  0.71058491     0.28200
H1072       H  0.50163903  0.14471338  0.75967960     0.32400
H1073       H  0.42008952  0.03499515  0.80352073     0.35200
H1074       H  0.45642506  0.95870504  0.66040038     0.27900
H1075       H  0.54468178  0.88712039  0.73290989     0.40700
H1076       H  0.64106906  0.05445304  0.80505216     0.30800
H1077       H  0.64040290  0.07119077  0.73217411     0.38400
H1078       H  0.35225415  0.93622677  0.76479458     0.30200
H1079       H  0.53873472  0.03086790  0.83847150     0.30300
H1080       H  0.47845767  0.11395944  0.78212340     0.30600
Zr1081     Zr  0.46158188  0.53087644  0.76284505     2.17500
O1082       O  0.43117313  0.57528340  0.77657768    -0.51800
O1083       O  0.39676176  0.48420899  0.78421945    -0.75000
O1084       O  0.42970839  0.55188258  0.72670322    -0.81800
O1085       O  0.53960784  0.56271321  0.82044905    -0.83500
O1086       O  0.44041641  0.52555609  0.68987538    -0.79100
O1087       O  0.49861148  0.58194849  0.79691680    -0.90800
O1088       O  0.38531891  0.41749871  0.78082194    -0.76700
O1089       O  0.43596700  0.46835798  0.73834457    -0.86200
O1090       O  0.47113356  0.48094423  0.78861827    -0.85900
O1091       O  0.50425868  0.54991611  0.72542905    -0.72700
O1092       O  0.53444152  0.55704444  0.77186876    -0.84800
Zr1093     Zr  0.56163227  0.46428650  0.73573510     2.26400
Zr1094     Zr  0.47895022  0.48661040  0.70120081     2.06300
Zr1095     Zr  0.54437794  0.50739593  0.79719819     2.10000
Zr1096     Zr  0.44666469  0.41915201  0.76370931     1.78800
O1097       O  0.61445952  0.55348234  0.81280010    -0.93600
O1098       O  0.39089049  0.36919539  0.73673804    -0.41400
O1099       O  0.51913184  0.44495843  0.77284197    -0.78100
O1100       O  0.48774061  0.43565226  0.72668112    -0.96700
O1101       O  0.55234478  0.51424378  0.71011614    -0.90000
O1102       O  0.58767196  0.52658901  0.76028735    -0.92900
C1103       C  0.37506383  0.44483175  0.78831121     1.00900
C1104       C  0.52384928  0.58727172  0.81569429     1.13800
C1105       C  0.42632714  0.54713097  0.70225630     1.04600
O1106       O  0.41228994  0.43476725  0.68398040    -0.95000
O1107       O  0.49240718  0.43872818  0.67467520    -0.90800
O1108       O  0.53854060  0.42443888  0.69649625    -0.83900
C1109       C  0.51352949  0.41857224  0.67772458     1.11200
O1110       O  0.57956723  0.64356192  0.74326666    -0.97000
Zr1111     Zr  0.57661265  0.57588614  0.73520071     1.88900
O1112       O  0.62761966  0.51075887  0.71540371    -0.73700
O1113       O  0.50487527  0.52360871  0.66130225    -0.52900
O1114       O  0.58220350  0.61458854  0.69631530    -0.97600
O1115       O  0.63708811  0.62417266  0.75977458    -0.54800
O1116       O  0.63269015  0.57537334  0.71188073    -0.74200
C1117       C  0.64552960  0.54859322  0.70735163     0.98200
O1118       O  0.58909205  0.41438599  0.73118900    -0.63000
O1119       O  0.51751118  0.48053008  0.83922353    -0.57800
O1120       O  0.58831091  0.43789317  0.77155397    -0.94500
O1121       O  0.57310622  0.45982015  0.80858929    -0.92900
O1122       O  0.43819801  0.38752151  0.80551028    -0.93300
O1123       O  0.44345873  0.35024670  0.76239931    -0.92100
C1124       C  0.58792387  0.43905916  0.79610885     1.17000
H1125       H  0.45648367  0.47589289  0.80454227     0.32900
H1126       H  0.47604972  0.40879339  0.71845649     0.43800
H1127       H  0.61676924  0.53641538  0.76451072     0.37300
H1128       H  0.50271972  0.57212115  0.71609047     0.33800
H1129       H  0.37052880  0.34863742  0.74860150     0.25600
H1130       H  0.52758442  0.51721430  0.65612845     0.31500
H1131       H  0.57675567  0.59412558  0.68251268     0.37400
H1132       H  0.46487925  0.38691227  0.80891244     0.31900
H1133       H  0.50339414  0.44976961  0.83730070     0.30800
H1134       H  0.61922278  0.53791046  0.82681102     0.32500
H1135       H  0.65683854  0.61227765  0.75946429     0.31400
H1136       H  0.45785872  0.34980754  0.74656683     0.35400
H1137       H  0.56436211  0.38679954  0.72875093     0.28200
H1138       H  0.40167278  0.56095873  0.77084906     0.32400
H1139       H  0.55024720  0.63844524  0.74177619     0.35200
H1140       H  0.54265089  0.48676935  0.84959044     0.27900
H1141       H  0.60378274  0.42067442  0.71475033     0.40700
H1142       H  0.39103701  0.44069002  0.69220581     0.30800
H1143       H  0.37653862  0.38476836  0.73002440     0.38400
H1144       H  0.62708111  0.62048924  0.77750364     0.30200
H1145       H  0.48211255  0.50844642  0.64891465     0.30300
H1146       H  0.44452544  0.60077928  0.76601194     0.30600
Zr1147     Zr  0.50047114  0.91662129  0.99697880     2.17500
O1148       O  0.53894315  0.88024192  0.50868361    -0.51800
O1149       O  0.45244082  0.86246015  0.96941510    -0.75000
O1150       O  0.46000285  0.86230103  0.52947621    -0.81800
O1151       O  0.57043327  0.97082429  0.93907812    -0.83500
O1152       O  0.42809111  0.88886142  0.55539727    -0.79100
O1153       O  0.54426576  0.91177783  0.96349413    -0.90800
O1154       O  0.41135048  0.88753474  0.95142098    -0.76700
O1155       O  0.43714759  0.92220243  0.50416822    -0.86200
O1156       O  0.49252283  0.95304105  0.96092652    -0.85900
O1157       O  0.51301042  0.95575757  0.53616155    -0.72700
O1158       O  0.56125133  0.98418300  0.99436218    -0.84800
Zr1159     Zr  0.50311038  0.06646872  0.50420571     2.26400
Zr1160     Zr  0.45045321  0.96163185  0.54225194     2.06300
Zr1161     Zr  0.55215713  0.02064281  0.95842411     2.10000
Zr1162     Zr  0.42981893  0.95732294  0.96684564     1.78800
O1163       O  0.62769135  0.05197341  0.95415962    -0.93600
O1164       O  0.35814494  0.92112186  0.98215968    -0.41400
O1165       O  0.48899568  0.02558868  0.96376127    -0.78100
O1166       O  0.44101211  0.99979658  0.50734793    -0.96700
O1167       O  0.51078626  0.02881569  0.53950502    -0.90000
O1168       O  0.56315475  0.05955666  0.99640978    -0.92900
C1169       C  0.42312711  0.85932081  0.95445241     1.00900
C1170       C  0.56445166  0.93382599  0.94429496     1.13800
C1171       C  0.43592344  0.85907440  0.54842630     1.04600
O1172       O  0.37497481  0.93490207  0.54339895    -0.95000
O1173       O  0.44174960  0.01374153  0.56591191    -0.90800
O1174       O  0.46620138  0.07231940  0.54121994    -0.83900
C1175       C  0.44885461  0.05119658  0.56130243     1.11200
O1176       O  0.61290280  0.98846749  0.54672318    -0.97000
Zr1177     Zr  0.57272787  0.02361387  0.53308631     1.88900
O1178       O  0.55531977  0.12122185  0.52958859    -0.73700
O1179       O  0.45702445  0.95606828  0.58802713    -0.52900
O1180       O  0.57170580  0.01942370  0.57921185    -0.97600
O1181       O  0.64673161  0.06113049  0.52263719    -0.54800
O1182       O  0.59469613  0.09437355  0.54798976    -0.74200
C1183       C  0.58452911  0.12365120  0.54435181     0.98200
O1184       O  0.45701460  0.09598373  0.98778759    -0.63000
O1185       O  0.53688309  0.02072365  0.91334536    -0.57800
O1186       O  0.54102707  0.11983732  0.96959303    -0.94500
O1187       O  0.57458499  0.09352025  0.94471293    -0.92900
O1188       O  0.42610028  0.96147496  0.92082795    -0.93300
O1189       O  0.38752575  0.98707154  0.94850987    -0.92100
C1190       C  0.56618004  0.12329179  0.95114873     1.17000
H1191       H  0.49025508  0.93793782  0.94542988     0.32900
H1192       H  0.41705914  0.00425721  0.51048048     0.43800
H1193       H  0.58712097  0.08670889  0.99474647     0.37300
H1194       H  0.51679615  0.94014001  0.54991619     0.33800
H1195       H  0.34049171  0.91230329  0.96670107     0.25600
H1196       H  0.42885032  0.93565451  0.59386404     0.31500
H1197       H  0.54279093  0.01268160  0.58393634     0.37400
H1198       H  0.43632128  0.94233942  0.91409107     0.31900
H1199       H  0.56331246  0.02660998  0.90470707     0.30800
H1200       H  0.63302864  0.06062800  0.93616367     0.32500
H1201       H  0.65067591  0.08737407  0.51445424     0.31400
H1202       H  0.38866636  0.00779566  0.96116104     0.35400
H1203       H  0.45588272  0.09283723  0.96910266     0.28200
H1204       H  0.51955448  0.85042829  0.50535845     0.32400
H1205       H  0.59188854  0.96059622  0.55263801     0.35200
H1206       H  0.51773660  0.99119227  0.90915331     0.27900
H1207       H  0.42850381  0.07616694  0.99342803     0.40700
H1208       H  0.36336069  0.90411974  0.54325999     0.30800
H1209       H  0.35532205  0.89471737  0.98951019     0.38400
H1210       H  0.65043992  0.04476935  0.50874712     0.30200
H1211       H  0.47447298  0.94178167  0.59033894     0.30300
H1212       H  0.54173517  0.88247204  0.52738087     0.30600
Zr1213     Zr  0.45173778  0.52522013  0.98762472     2.17500
O1214       O  0.38658884  0.53010229  0.48190475    -0.51800
O1215       O  0.48140250  0.58876261  0.96166903    -0.75000
O1216       O  0.43260211  0.55718264  0.52476904    -0.81800
O1217       O  0.42364679  0.44418049  0.93337977    -0.83500
O1218       O  0.46941763  0.55617387  0.55968868    -0.79100
O1219       O  0.40025305  0.48336608  0.95544201    -0.90800
O1220       O  0.54415173  0.62003841  0.97951066    -0.76700
O1221       O  0.51781727  0.56749085  0.50821479    -0.86200
O1222       O  0.50245434  0.52727748  0.95732805    -0.85900
O1223       O  0.45064166  0.48936812  0.52566329    -0.72700
O1224       O  0.44033526  0.45476040  0.98069443    -0.84800
Zr1225     Zr  0.55946309  0.46565150  0.50848536     2.26400
Zr1226     Zr  0.51741606  0.52941146  0.54561734     2.06300
Zr1227     Zr  0.49137721  0.45700736  0.95085460     2.10000
Zr1228     Zr  0.56830176  0.56875823  0.97720843     1.78800
O1229       O  0.45445718  0.38716068  0.93275443    -0.93600
O1230       O  0.62554901  0.62745877  0.99848653    -0.41400
O1231       O  0.55850065  0.49948028  0.96935922    -0.78100
O1232       O  0.57127387  0.53607515  0.51604224    -0.96700
O1233       O  0.50617820  0.45983641  0.53751044    -0.90000
O1234       O  0.49294221  0.42173946  0.98889916    -0.92900
C1235       C  0.51789085  0.61996217  0.96343750     1.00900
C1236       C  0.39657765  0.45707821  0.93789127     1.13800
C1237       C  0.44180963  0.56388025  0.54866685     1.04600
O1238       O  0.54937398  0.59595451  0.56789473    -0.95000
O1239       O  0.58096797  0.53780464  0.56731403    -0.90800
O1240       O  0.60411048  0.49827091  0.54572937    -0.83900
C1241       C  0.60763357  0.52409947  0.56360271     1.11400
O1242       O  0.36725168  0.40289267  0.52101180    -0.97000
Zr1243     Zr  0.44086276  0.42076350  0.51644896     1.88900
O1244       O  0.53285480  0.39951489  0.53062085    -0.73700
O1245       O  0.48928405  0.48778542  0.58379800    -0.52900
O1246       O  0.41377296  0.40017639  0.55926806    -0.97600
O1247       O  0.39787950  0.35991404  0.49032568    -0.54800
O1248       O  0.46264977  0.37278879  0.53288464    -0.74200
C1249       C  0.49652337  0.37103945  0.53693566     0.98200
O1250       O  0.62971181  0.47175340  0.00262456    -0.63000
O1251       O  0.51269071  0.48832444  0.90898753    -0.57800
O1252       O  0.57711368  0.42937895  0.97305117    -0.94500
O1253       O  0.54075063  0.43054537  0.93797090    -0.92900
O1254       O  0.57804954  0.59060097  0.93294210    -0.93300
O1255       O  0.63912891  0.58885778  0.96303575    -0.92100
C1256       C  0.56772325  0.42207868  0.94930572     1.17000
H1257       H  0.49985163  0.53877817  0.94127611     0.32900
H1258       H  0.59903540  0.55361170  0.52237583     0.43800
H1259       H  0.48958235  0.39417546  0.98518409     0.37300
H1260       H  0.42807798  0.48624675  0.53664195     0.33800
H1261       H  0.62699948  0.65271508  0.99023342     0.25600
H1262       H  0.50948203  0.50351641  0.59738933     0.31500
H1263       H  0.39776012  0.36929144  0.55884603     0.37400
H1264       H  0.57816836  0.56690047  0.92360935     0.31900
H1265       H  0.51882676  0.46830691  0.89937873     0.30800
H1266       H  0.45402457  0.39176069  0.91425884     0.32500
H1267       H  0.41770763  0.35351195  0.48077358     0.31400
H1268       H  0.64283799  0.56367557  0.96583550     0.35400
H1269       H  0.64899939  0.50177584  0.00533593     0.28200
H1270       H  0.39624593  0.56187726  0.98447572     0.32400
H1271       H  0.35214603  0.37226647  0.52359191     0.35200
H1272       H  0.48690303  0.48617833  0.90102242     0.27900
H1273       H  0.63054507  0.45385412  0.52179159     0.40700
H1274       H  0.56398418  0.61688025  0.55451684     0.30800
H1275       H  0.61497610  0.62777463  0.01573201     0.38400
H1276       H  0.38522573  0.37041438  0.47731555     0.30200
H1277       H  0.46401288  0.49062408  0.58786484     0.30300
H1278       H  0.36876638  0.51473485  0.49642359     0.30600
C1279       C  0.67335595  0.32201085  0.89919261     0.45000
H1280       H  0.67215596  0.32099355  0.92020445    -0.04000
C1281       C  0.67531347  0.32318307  0.85001979     0.45100
H1282       H  0.67695147  0.32403311  0.82901397    -0.04000
C1283       C  0.65019609  0.27709526  0.88742712    -0.17700
C1284       C  0.65184719  0.34699304  0.88737376    -0.17500
C1285       C  0.71920975  0.34345981  0.88857561    -0.17800
C1286       C  0.65165193  0.27757838  0.86101753    -0.17800
C1287       C  0.65257515  0.34734387  0.86097790    -0.17400
C1288       C  0.71985406  0.34415172  0.86219354    -0.17700
C1289       C  0.62108682  0.42750986  0.91654989    -0.09600
C1290       C  0.58982028  0.40298623  0.93396945     0.06600
C1291       C  0.58127407  0.36088076  0.93696658    -0.03400
C1292       C  0.60224891  0.34383299  0.92217222    -0.07800
C1293       C  0.63216563  0.36776792  0.90384492     0.05700
C1294       C  0.64261538  0.41069579  0.90203426    -0.02800
Br1295     Br  0.68930926  0.44902854  0.88240925    -0.02500
H1296       H  0.62961469  0.46034329  0.91466462     0.09600
H1297       H  0.59418156  0.31117069  0.92449543     0.07600
Br1298     Br  0.53986248  0.32490314  0.96046543    -0.03000
C1299       C  0.64952412  0.22881568  0.92323623    -0.09600
C1300       C  0.62747387  0.23781005  0.90404745     0.06600
C1301       C  0.58415249  0.20941428  0.90168729    -0.03400
C1302       C  0.56476640  0.17340755  0.91736401    -0.07800
C1303       C  0.58713549  0.16395823  0.93604027     0.05700
C1304       C  0.63011727  0.19260303  0.93876413    -0.02800
Br1305     Br  0.66361325  0.18376424  0.96394050    -0.02500
H1306       H  0.68244380  0.24984971  0.92596236     0.09600
H1307       H  0.53183401  0.15234477  0.91473513     0.07600
Br1308     Br  0.54883345  0.21886651  0.87822842    -0.03000
C1309       C  0.57883863  0.38607331  0.83000414    -0.09600
C1310       C  0.60432289  0.41417083  0.81137038     0.06600
C1311       C  0.64501965  0.41849364  0.80845491    -0.03400
C1312       C  0.65978005  0.39659829  0.82451401    -0.07800
C1313       C  0.63467186  0.36934652  0.84376131     0.05700
C1314       C  0.59300701  0.36317075  0.84546759    -0.02800
Br1315     Br  0.55202954  0.32047957  0.86625438    -0.02500
H1316       H  0.54702678  0.38100852  0.83212637     0.09600
H1317       H  0.69151731  0.40157097  0.82222156     0.07600
Br1318     Br  0.68239939  0.45570048  0.78361445    -0.03000
C1319       C  0.63894723  0.20324830  0.85127698    -0.09600
C1320       C  0.63346475  0.23815210  0.84433136     0.06600
C1321       C  0.60954661  0.23376765  0.82202717    -0.03400
C1322       C  0.59257211  0.19633298  0.80770553    -0.07800
C1323       C  0.59726495  0.16101272  0.81489206     0.05700
C1324       C  0.62069133  0.16520899  0.83747176    -0.02800
Br1325     Br  0.62751542  0.12002200  0.85197512    -0.02500
H1326       H  0.65729387  0.20521540  0.86797974     0.09600
H1327       H  0.57443381  0.19470427  0.79094710     0.07600
Br1328     Br  0.59454156  0.27559374  0.81098945    -0.03000
C1329       C  0.51841273  0.65121238  0.82779036    -0.09600
C1330       C  0.53813373  0.62597729  0.83136089     0.06600
C1331       C  0.57302789  0.64054209  0.84822263    -0.03400
C1332       C  0.58932373  0.68069448  0.85869643    -0.07800
C1333       C  0.57050107  0.70616254  0.85398634     0.05700
C1334       C  0.53362046  0.69026224  0.83942156    -0.02800
Br1335     Br  0.50133944  0.71954696  0.83619695    -0.02500
H1336       H  0.49081057  0.64060240  0.81592416     0.09600
H1337       H  0.61682897  0.69206103  0.87066670     0.07600
Br1338     Br  0.60047194  0.60845019  0.85866384    -0.03000
C1339       C  0.57562381  0.83241342  0.81851234    -0.09600
C1340       C  0.60645628  0.85092342  0.83715832     0.06600
C1341       C  0.62910554  0.89492622  0.83790941    -0.03400
C1342       C  0.61588188  0.91892061  0.82298110    -0.07800
C1343       C  0.58118449  0.89962247  0.80652793     0.05700
C1344       C  0.56275656  0.85559771  0.80338885    -0.02800
Br1345     Br  0.51719097  0.82201941  0.78092079    -0.02500
H1346       H  0.55863352  0.79885748  0.81684029     0.09600
H1347       H  0.63236957  0.95264295  0.82458642     0.07600
Br1348     Br  0.67944445  0.92346083  0.85741031    -0.03000
C1349       C  0.52271134  0.69710616  0.91241606    -0.09600
C1350       C  0.56599690  0.71944359  0.90887894     0.06600
C1351       C  0.59280981  0.70979245  0.92343085    -0.03400
C1352       C  0.57619791  0.67803328  0.94134419    -0.07800
C1353       C  0.53270563  0.65508103  0.94515157     0.05700
C1354       C  0.50578409  0.66495261  0.93035389    -0.02800
Br1355     Br  0.44623399  0.63727771  0.93415976    -0.02500
H1356       H  0.50212504  0.70489697  0.90121542     0.09600
H1357       H  0.59772820  0.67087176  0.95201256     0.07600
Br1358     Br  0.65235248  0.73903300  0.91928628    -0.03000
C1359       C  0.54982435  0.88939230  0.90687633    -0.09600
C1360       C  0.57842000  0.91344882  0.92557858     0.06600
C1361       C  0.61774763  0.91472964  0.92703462    -0.03400
C1362       C  0.62650520  0.88883026  0.91120371    -0.07800
C1363       C  0.59690350  0.86271906  0.89334212     0.05700
C1364       C  0.55871653  0.86411133  0.89074005    -0.02800
Br1365     Br  0.51537451  0.82867582  0.86783563    -0.02500
H1366       H  0.51952528  0.88865119  0.90569738     0.09600
H1367       H  0.65561297  0.88743714  0.91366391     0.07600
Br1368     Br  0.65910654  0.94951275  0.95116228    -0.03000
C1369       C  0.44922310  0.27133138  0.57411606    -0.09600
C1370       C  0.48312764  0.27697980  0.58934341     0.06600
C1371       C  0.52309164  0.30940759  0.58423329    -0.03400
C1372       C  0.52774257  0.33853811  0.56551635    -0.07800
C1373       C  0.49291656  0.33500704  0.55160977     0.05700
C1374       C  0.45367783  0.29942466  0.55508006    -0.02800
Br1375     Br  0.40413027  0.28663494  0.53534595    -0.02500
H1376       H  0.41866328  0.24526901  0.57756508     0.09600
H1377       H  0.55824024  0.36499872  0.56276184     0.07600
Br1378     Br  0.57163917  0.31530078  0.60223070    -0.03000
C1379       C  0.45676962  0.32288987  0.63540946    -0.09600
C1380       C  0.47774505  0.30024783  0.64245708     0.06600
C1381       C  0.51403958  0.31937542  0.65738185    -0.03400
C1382       C  0.52781341  0.36004487  0.66600781    -0.07800
C1383       C  0.50491451  0.38203297  0.66112602     0.05700
C1384       C  0.46978728  0.36344723  0.64460448    -0.02800
Br1385     Br  0.43643520  0.38964258  0.63445487    -0.02500
H1386       H  0.42937376  0.30841516  0.62332162     0.09600
H1387       H  0.55526965  0.37330548  0.67807236     0.07600
Br1388     Br  0.54467937  0.29041497  0.66781771    -0.03000
C1389       C  0.42274748  0.12434714  0.70602805    -0.09600
C1390       C  0.40823972  0.08385914  0.69608051     0.06600
C1391       C  0.38579527  0.07453942  0.67303357    -0.03400
C1392       C  0.38616327  0.10732084  0.65853525    -0.07800
C1393       C  0.41200604  0.14940834  0.66538983     0.05700
C1394       C  0.42644477  0.15736324  0.69088992    -0.02800
Br1395     Br  0.45631109  0.21127461  0.70688382    -0.02500
H1396       H  0.43631916  0.13176031  0.72486493     0.09600
H1397       H  0.36961700  0.09988056  0.64060364     0.07600
Br1398     Br  0.35688954  0.01911919  0.65933736    -0.03000
C1399       C  0.41029345  0.08848890  0.57393549    -0.09600
C1400       C  0.43748488  0.07255348  0.58073114     0.06600
C1401       C  0.45910549  0.08381201  0.60407223    -0.03400
C1402       C  0.45632116  0.11415866  0.61911596    -0.07800
C1403       C  0.43229382  0.13317102  0.61098358     0.05700
C1404       C  0.40744214  0.11863433  0.58889997    -0.02800
Br1405     Br  0.37413447  0.14352070  0.57633400    -0.02500
H1406       H  0.39376650  0.07986741  0.55595297     0.09600
H1407       H  0.47606562  0.12586384  0.63578027     0.07600
Br1408     Br  0.49900568  0.06517971  0.61371117    -0.03000
C1409       C  0.60854530  0.21854939  0.66195674    -0.09600
C1410       C  0.64092030  0.21864982  0.64732735     0.06600
C1411       C  0.65020416  0.18509285  0.64945230    -0.03400
C1412       C  0.62782922  0.15272216  0.66615454    -0.07800
C1413       C  0.59640066  0.15294432  0.68172718     0.05700
C1414       C  0.58628629  0.18618280  0.67910921    -0.02800
Br1415     Br  0.54359942  0.19035418  0.69838783    -0.02500
H1416       H  0.60205369  0.24492270  0.66093460     0.09600
H1417       H  0.63665629  0.12796021  0.66761444     0.07600
Br1418     Br  0.69655257  0.18369806  0.63282212    -0.03000
C1419       C  0.65185734  0.17916171  0.55951146    -0.09600
C1420       C  0.60844134  0.16274578  0.55833290     0.06600
C1421       C  0.58891858  0.18254513  0.57181712    -0.03400
C1422       C  0.61239414  0.21523399  0.58841025    -0.07800
C1423       C  0.65555828  0.23016365  0.59063332     0.05700
C1424       C  0.67570931  0.21338625  0.57486526    -0.02800
Br1425     Br  0.73523862  0.23378828  0.57397327    -0.02500
H1426       H  0.66728845  0.16505454  0.54850983     0.09600
H1427       H  0.59697748  0.22916594  0.59957496     0.07600
Br1428     Br  0.53062230  0.16622544  0.56888020    -0.03000
C1429       C  0.77515726  0.38588418  0.66910330    -0.09600
C1430       C  0.76723228  0.34519241  0.66293283     0.06600
C1431       C  0.78623055  0.32577161  0.67746545    -0.03400
C1432       C  0.81935206  0.34991518  0.69340031    -0.07800
C1433       C  0.83035431  0.39194723  0.69775540     0.05700
C1434       C  0.80452663  0.40822729  0.68789244    -0.02800
Br1435     Br  0.80306668  0.45638792  0.70185144    -0.02500
H1436       H  0.75693615  0.39926265  0.66031222     0.09600
H1437       H  0.83627944  0.33560221  0.70274923     0.07600
Br1438     Br  0.76748243  0.26652044  0.67768911    -0.03000
C1439       C  0.81390744  0.36648484  0.81835295    -0.09600
C1440       C  0.83292548  0.41028236  0.81496032     0.06600
C1441       C  0.81352034  0.43179597  0.82701634    -0.03400
C1442       C  0.77775483  0.41024638  0.84253900    -0.07800
C1443       C  0.75906934  0.36656680  0.84599426     0.05700
C1444       C  0.77704645  0.34479039  0.83287758    -0.02800
Br1445     Br  0.75198244  0.28502364  0.83425869    -0.02500
H1446       H  0.82742256  0.34876363  0.80923783     0.09600
H1447       H  0.76418052  0.42778242  0.85181171     0.07600
Br1448     Br  0.83556274  0.49105135  0.82371197    -0.03000
C1449       C  0.78253833  0.38773593  0.58961760    -0.09600
C1450       C  0.78269809  0.35693256  0.60579956     0.06600
C1451       C  0.81555494  0.34649228  0.60393363    -0.03400
C1452       C  0.84713767  0.36660016  0.58639169    -0.07800
C1453       C  0.84623168  0.39593390  0.56917307     0.05700
C1454       C  0.81321338  0.40659359  0.57101496    -0.02800
Br1455     Br  0.80603239  0.44460468  0.54843286    -0.02500
H1456       H  0.75640539  0.39464964  0.59011279     0.09600
H1457       H  0.87153251  0.35720804  0.58545251     0.07600
Br1458     Br  0.81646048  0.30051472  0.62138371    -0.03000
C1459       C  0.79190431  0.35274157  0.90005347    -0.09600
C1460       C  0.75867632  0.36169949  0.90542589     0.06600
C1461       C  0.76425432  0.38761268  0.92688304    -0.03400
C1462       C  0.80185261  0.40461447  0.94122055    -0.07800
C1463       C  0.83565887  0.39668620  0.93544471     0.05700
C1464       C  0.82945940  0.36945015  0.91446781    -0.02800
Br1465     Br  0.87006988  0.35237290  0.90402957    -0.02500
H1466       H  0.78852643  0.33181782  0.88456676     0.09600
H1467       H  0.80464053  0.42480277  0.95706244     0.07600
Br1468     Br  0.72305389  0.40339606  0.93758731    -0.03000
C1469       C  0.92057537  0.62995515  0.64917341    -0.09600
C1470       C  0.87766789  0.60364540  0.64583631     0.06600
C1471       C  0.85959095  0.56352203  0.65680819    -0.03400
C1472       C  0.88357264  0.55129935  0.67184347    -0.07800
C1473       C  0.92560328  0.57808875  0.67688542     0.05700
C1474       C  0.94481787  0.61733117  0.66444181    -0.02800
Br1475     Br  0.00313150  0.65536855  0.66798333    -0.02500
H1476       H  0.93496825  0.66047829  0.64032998     0.09600
H1477       H  0.86936578  0.52023022  0.67958712     0.07600
Br1478     Br  0.80217349  0.52327715  0.65150955    -0.03000
C1479       C  0.87008548  0.56241189  0.59344166    -0.09600
C1480       C  0.87263820  0.60181706  0.58984939     0.06600
C1481       C  0.90066854  0.62928146  0.57185898    -0.03400
C1482       C  0.92548056  0.61648858  0.55765616    -0.07800
C1483       C  0.92312495  0.57713535  0.56199410     0.05700
C1484       C  0.89640074  0.55086421  0.58068689    -0.02800
Br1485     Br  0.89662932  0.50006147  0.59083169    -0.02500
H1486       H  0.84795658  0.54057275  0.60658211     0.09600
H1487       H  0.94613050  0.63686391  0.54321149     0.07600
Br1488     Br  0.90547584  0.68369495  0.56606613    -0.03000
C1489       C  0.72049340  0.55157152  0.65655518    -0.09600
C1490       C  0.74577942  0.59467649  0.65406542     0.06600
C1491       C  0.74048940  0.62218754  0.67056531    -0.03400
C1492       C  0.70889859  0.60625969  0.68864979    -0.07800
C1493       C  0.68244336  0.56288553  0.69077981     0.05700
C1494       C  0.68923228  0.53537016  0.67472053    -0.02800
Br1495     Br  0.65659562  0.47568091  0.67509741    -0.02500
H1496       H  0.72513393  0.53021917  0.64419459     0.09600
H1497       H  0.70459738  0.62808524  0.70081599     0.07600
Br1498     Br  0.77475521  0.68154755  0.66850113    -0.03000
C1499       C  0.70467868  0.59952130  0.60112597    -0.09600
C1500       C  0.72990119  0.57972657  0.59906718     0.06600
C1501       C  0.71253575  0.53928113  0.58843822    -0.03400
C1502       C  0.67198020  0.52098822  0.57837069    -0.07800
C1503       C  0.64716961  0.54166234  0.57899604     0.05700
C1504       C  0.66366301  0.58088941  0.59163091    -0.02800
Br1505     Br  0.63347369  0.61210694  0.59654862    -0.02500
H1506       H  0.71713083  0.62990357  0.61014175     0.09600
H1507       H  0.66002749  0.49043477  0.56965702     0.07600
Br1508     Br  0.74193868  0.50656982  0.58819745    -0.03000
C1509       C  0.41215360  0.79805929  0.81308957    -0.09600
C1510       C  0.40287858  0.83128519  0.81746039     0.06600
C1511       C  0.37612364  0.82790275  0.83792078    -0.03400
C1512       C  0.35987834  0.79222098  0.85307936    -0.07800
C1513       C  0.36972844  0.75955946  0.84878822     0.05700
C1514       C  0.39546422  0.76238805  0.82822426    -0.02800
Br1515     Br  0.40569029  0.71687453  0.81853710    -0.02500
H1516       H  0.43151384  0.79900667  0.79729495     0.09600
H1517       H  0.33719101  0.78894166  0.86732836     0.07600
Br1518     Br  0.35703490  0.86821355  0.84578094    -0.03000
C1519       C  0.23467252  0.59593254  0.83345133    -0.09600
C1520       C  0.24250103  0.63283883  0.84602322     0.06600
C1521       C  0.21613052  0.65115192  0.84208588    -0.03400
C1522       C  0.18140686  0.63155915  0.82641337    -0.07800
C1523       C  0.17307330  0.59447527  0.81354553     0.05700
C1524       C  0.20044163  0.57662247  0.81711111    -0.02800
Br1525     Br  0.19396219  0.52632930  0.80080253    -0.02500
H1526       H  0.25586119  0.58264573  0.83593086     0.09600
H1527       H  0.16151243  0.64627821  0.82374974     0.07600
Br1528     Br  0.22779181  0.70453927  0.85607514    -0.03000
C1529       C  0.42636219  0.80188147  0.93024400    -0.09600
C1530       C  0.40271719  0.82132875  0.93881852     0.06600
C1531       C  0.36051879  0.80494288  0.93134963    -0.03400
C1532       C  0.34334612  0.77082418  0.91510472    -0.07800
C1533       C  0.36745685  0.75287853  0.90559893     0.05700
C1534       C  0.40884623  0.76767122  0.91373451    -0.02800
Br1535     Br  0.44129234  0.74085249  0.90352762    -0.02500
H1536       H  0.45869583  0.81371177  0.93601563     0.09600
H1537       H  0.31076044  0.75814946  0.90965359     0.07600
Br1538     Br  0.32368386  0.82593290  0.94329539    -0.03000
C1539       C  0.22510729  0.65331180  0.91223538    -0.09600
C1540       C  0.24262108  0.62935112  0.90189230     0.06600
C1541       C  0.22445768  0.58641539  0.90694493    -0.03400
C1542       C  0.18934190  0.56814519  0.92266083    -0.07800
C1543       C  0.17159269  0.59224394  0.93294000     0.05700
C1544       C  0.18956736  0.63519422  0.92722485    -0.02800
Br1545     Br  0.16914406  0.67173036  0.94034931    -0.02500
H1546       H  0.23969581  0.68668446  0.90890709     0.09600
H1547       H  0.17563846  0.53500479  0.92667414     0.07600
Br1548     Br  0.24752986  0.55249670  0.89338554    -0.03000
C1549       C  0.28431554  0.37835167  0.83123622    -0.09600
C1550       C  0.27170450  0.40763112  0.83865566     0.06600
C1551       C  0.29059179  0.44801495  0.82828950    -0.03400
C1552       C  0.32326510  0.45906613  0.81121311    -0.07800
C1553       C  0.33711451  0.43011304  0.80398757     0.05700
C1554       C  0.31634794  0.38874401  0.81386881    -0.02800
Br1555     Br  0.32876362  0.34378992  0.80558848    -0.02500
H1556       H  0.26870422  0.34694157  0.83888513     0.09600
H1557       H  0.33817523  0.49065937  0.80387689     0.07600
Br1558     Br  0.27347164  0.48926234  0.83729168    -0.03000
C1559       C  0.30602878  0.44834617  0.89700167    -0.09600
C1560       C  0.28223951  0.40490411  0.89434055     0.06600
C1561       C  0.29697535  0.37872910  0.90531192    -0.03400
C1562       C  0.33478813  0.39617505  0.91895238    -0.07800
C1563       C  0.35800443  0.43969699  0.92222495     0.05700
C1564       C  0.34346804  0.46582080  0.91077741    -0.02800
Br1565     Br  0.37421733  0.52559970  0.91245467    -0.02500
H1566       H  0.29488005  0.46882359  0.88879716     0.09600
H1567       H  0.34557469  0.37564773  0.92755062     0.07600
Br1568     Br  0.26627185  0.31921302  0.90206807    -0.03000
C1569       C  0.08236583  0.37819072  0.81631063    -0.09600
C1570       C  0.08321621  0.41644146  0.82184276     0.06600
C1571       C  0.10672225  0.44029862  0.84259010    -0.03400
C1572       C  0.13138813  0.42713937  0.85647032    -0.07800
C1573       C  0.13210911  0.38968099  0.85040254     0.05700
C1574       C  0.10650621  0.36456906  0.83052278    -0.02800
Br1575     Br  0.10518706  0.31262971  0.82131748    -0.02500
H1576       H  0.06408110  0.35966499  0.80039719     0.09600
H1577       H  0.15164276  0.44727453  0.87124204     0.07600
Br1578     Br  0.10786581  0.49220897  0.85176221    -0.03000
C1579       C  0.13580544  0.43022828  0.93730485    -0.09600
C1580       C  0.09206244  0.40862232  0.93525473     0.06600
C1581       C  0.07368517  0.37330127  0.91909453    -0.03400
C1582       C  0.09940462  0.36160125  0.90502194    -0.07800
C1583       C  0.14309929  0.38484053  0.90644736     0.05700
C1584       C  0.16115817  0.41908276  0.92322896    -0.02800
Br1585     Br  0.22017463  0.45556956  0.92660268    -0.02500
H1586       H  0.15116452  0.45757238  0.94929341     0.09600
H1587       H  0.08531736  0.33525461  0.89215508     0.07600
Br1588     Br  0.01449017  0.33982346  0.91487552    -0.03000
C1589       C  0.20736331  0.57331347  0.56155123    -0.09600
C1590       C  0.17524685  0.58460698  0.56526162     0.06600
C1591       C  0.18207552  0.61461024  0.58466636    -0.03400
C1592       C  0.21921627  0.63160347  0.59932466    -0.07800
C1593       C  0.25090693  0.61988579  0.59563751     0.05700
C1594       C  0.24430679  0.59028497  0.57630751    -0.02800
Br1595     Br  0.28303573  0.56905855  0.57006227    -0.02500
H1596       H  0.20362491  0.55039373  0.54721194     0.09600
H1597       H  0.22349940  0.65463695  0.61370746     0.07600
Br1598     Br  0.14302677  0.63515959  0.59246473    -0.03000
C1599       C  0.18827131  0.55774201  0.67240534    -0.09600
C1600       C  0.17532472  0.58337019  0.68596468     0.06600
C1601       C  0.20062047  0.62717007  0.68371976    -0.03400
C1602       C  0.23723437  0.64413357  0.66861035    -0.07800
C1603       C  0.24967361  0.61854702  0.65465197     0.05700
C1604       C  0.22451267  0.57476880  0.65691623    -0.02800
Br1605     Br  0.23945363  0.53680094  0.63994969    -0.02500
H1606       H  0.16982196  0.52412463  0.67363445     0.09600
H1607       H  0.25600298  0.67774128  0.66759683     0.07600
Br1608     Br  0.18744706  0.66535095  0.70198374    -0.03000
C1609       C  0.42661118  0.62307949  0.56026516    -0.09600
C1610       C  0.41948614  0.58203104  0.56460368     0.06600
C1611       C  0.39244629  0.55992767  0.58473923    -0.03400
C1612       C  0.37330625  0.57873693  0.59977134    -0.07800
C1613       C  0.38080687  0.62032188  0.59572415     0.05700
C1614       C  0.40823000  0.64222449  0.57546645    -0.02800
Br1615     Br  0.42624799  0.69989449  0.56859761    -0.02500
H1616       H  0.44785414  0.64102662  0.54531174     0.09600
H1617       H  0.35211622  0.56049237  0.61464387     0.07600
Br1618     Br  0.37960218  0.50325637  0.59190131    -0.03000
C1619       C  0.43318643  0.59903773  0.66821110    -0.09600
C1620       C  0.40825259  0.57054210  0.68684855     0.06600
C1621       C  0.36754045  0.56601533  0.69024056    -0.03400
C1622       C  0.35238322  0.58831808  0.67474618    -0.07800
C1623       C  0.37718816  0.61648949  0.65575691     0.05700
C1624       C  0.41884500  0.62266794  0.65353809    -0.02800
Br1625     Br  0.45981841  0.66637066  0.63323462    -0.02500
H1626       H  0.46498459  0.60426549  0.66570410     0.09600
H1627       H  0.32067747  0.58320732  0.67743826     0.07600
Br1628     Br  0.33079775  0.52827741  0.71508278    -0.03000
C1629       C  0.43795261  0.81281639  0.58408867    -0.09600
C1630       C  0.41600759  0.81897559  0.56378407     0.06600
C1631       C  0.37426310  0.78796258  0.55982726    -0.03400
C1632       C  0.35536020  0.75257343  0.57597754    -0.07800
C1633       C  0.37701971  0.74666033  0.59667725     0.05700
C1634       C  0.41938294  0.77733603  0.60008414    -0.02800
Br1635     Br  0.45565671  0.77037423  0.62410603    -0.02500
H1636       H  0.47013249  0.83569618  0.58743785     0.09600
H1637       H  0.32337740  0.72947013  0.57230109     0.07600
Br1638     Br  0.34215823  0.79244147  0.53206709    -0.03000
C1639       C  0.41071371  0.79103290  0.69069095    -0.09600
C1640       C  0.39953999  0.82273853  0.68464614     0.06600
C1641       C  0.37158681  0.81446045  0.66381056    -0.03400
C1642       C  0.35683071  0.77659091  0.64986216    -0.07800
C1643       C  0.36888578  0.74552476  0.65579672     0.05700
C1644       C  0.39577155  0.75330783  0.67693511    -0.02800
Br1645     Br  0.41674909  0.71550544  0.68701604    -0.02500
H1646       H  0.43213245  0.79564604  0.70622085     0.09600
H1647       H  0.33564049  0.77142168  0.63410623     0.07600
Br1648     Br  0.35159589  0.85282899  0.65318819    -0.03000
loop_ 
_geom_bond_atom_site_label_1 
_geom_bond_atom_site_label_2 
_geom_bond_distance 
_geom_bond_site_symmetry_2 
_ccdc_geom_bond_type 
C1            H2   1.110       .  S
C1            C7   1.571       .  S
C1            C6   1.566       .  S
C1            C5   1.565       .  S
C3            H4   1.109       .  S
C3            C9   1.573       .  S
C3            C8   1.572       .  S
C3           C10   1.557       .  S
C5            C8   1.394       .  D
C5          C789   1.536       .  S
C6            C9   1.392       .  D
C6          C809   1.542       .  S
C7           C10   1.388       .  D
C7          C769   1.522       .  S
C8          C799   1.533       .  S
C9          C819   1.530       .  S
C10         C779   1.538       .  S
C11          C12   1.414       .  A
C11          C16   1.394       .  A
C11         C749   1.481       .  S
C12          C13   1.406       .  A
C12         C759   1.470       .  S
C13          C14   1.397       .  A
C13          H18   1.085       .  S
C14          C15   1.407       .  A
C14         C736   1.485       .  S
C15          C16   1.394       .  A
C15         C726   1.458       .  S
C16          H17   1.085       .  S
C19          C20   1.409       .  A
C19          C24   1.396       .  A
C19         C696   1.459       .  S
C20          C21   1.396       .  A
C20         C716   1.480       .  S
C21          C22   1.398       .  A
C21          H26   1.086       .  S
C22          C23   1.415       .  A
C22         C709   1.466       .  S
C23          C24   1.396       .  A
C23         C689   1.483       .  S
C24          H25   1.086       .  S
C27          C28   1.413       .  A
C27          C32   1.397       .  A
C27         C666   1.469       .  S
C28          C29   1.404       .  A
C28         C676   1.491       .  S
C29          C30   1.405       .  A
C29          H34   1.084       .  S
C30          C31   1.415       .  A
C30         C656   1.475       .  S
C31          C32   1.395       .  A
C31         C646   1.481       .  S
C32          H33   1.086       .  S
Zr35         O37   2.441       .  S
Zr35         O41   2.418       .  S
Zr35        O862   2.493   1_554  S
Zr35         O44   2.396       .  S
Zr35         O46   2.418   1_554  S
Zr35        O867   2.381   1_554  S
Zr35        O869   2.399   1_554  S
Zr35        O860   2.438   1_554  S
O36        Zr859   2.439       .  S
O36          H92   0.990       .  S
O36         H100   0.990       .  S
O37          C57   1.284       .  A
O38        Zr859   2.478       .  S
O38          C59   1.294       .  A
O39         Zr49   2.419   1_655  S
O39          C58   1.282       .  A
O40         Zr48   2.482       .  S
O40          C59   1.293       .  A
O41          C58   1.283       .  A
O42         Zr50   2.410       .  S
O42          C57   1.281       .  A
O43         Zr48   2.391       .  S
O43        Zr859   2.379       .  S
O43        Zr874   2.386       .  S
O44         Zr49   2.393   1_655  S
O44         Zr50   2.365       .  S
O44          H79   0.958       .  S
O45         Zr48   2.395       .  S
O45         Zr65   2.402   1_655  S
O45        Zr859   2.395       .  S
O45          H82   0.966       .  S
O46         Zr49   2.404   1_656  S
O46        Zr889   2.391   1_655  S
Zr47         O66   2.433       .  S
Zr47         O62   2.394       .  S
Zr47        O898   2.472       .  S
Zr47         O54   2.412       .  S
Zr47         O55   2.387       .  S
Zr47        O877   2.382       .  S
Zr47        O880   2.371       .  S
Zr47        O896   2.440       .  S
Zr48         O61   2.437   1_655  S
Zr48         O54   2.416   1_655  S
Zr48         O55   2.402   1_655  S
Zr48         O67   2.437       .  S
Zr48         O60   2.434       .  S
Zr49         O75   2.457       .  S
Zr49         O53   2.386       .  S
Zr49         O56   2.377   1_554  S
Zr49         O51   2.434       .  S
Zr49         O73   2.439       .  S
Zr50         O53   2.393   1_655  S
Zr50        O867   2.389   1_554  S
Zr50        O878   2.383   1_654  S
Zr50         O76   2.438       .  S
Zr50         O77   2.438   1_655  S
Zr50         O52   2.437       .  S
O51          H88   0.990       .  S
O52          H83   0.990       .  S
O52          H97   0.989       .  S
O53        Zr871   2.381   1_554  S
O54        Zr874   2.378   1_455  S
O54          H80   0.965       .  S
O55         Zr65   2.365       .  S
O56        Zr871   2.374       .  S
O56        Zr889   2.384       .  S
O56          H81   0.966       .  S
C57         C629   1.490       .  S
C58         C659   1.452       .  S
C59         C639   1.534       .  S
O60          H96   0.990       .  S
O61          C63   1.285       .  A
O62          C63   1.280       .  A
C63         C756   1.479       .  S
O64         Zr65   2.435   1_655  S
O64          H93   0.990       .  S
Zr65         O70   2.420       .  S
Zr65        O870   2.390   1_455  S
Zr65        O880   2.383       .  S
Zr65         O68   2.435       .  S
Zr65         O69   2.440       .  S
O66          C71   1.284       .  A
O67          H84   0.990       .  S
O67          H99   0.990       .  S
O68          H85   0.990       .  S
O69          H89   0.990       .  S
O69          H98   0.989       .  S
O70          C71   1.282       .  A
C71         C719   1.476       .  S
O72        Zr871   2.445   1_554  S
O72          H91   0.990       .  S
O72          H95   0.990       .  S
O73          H87   0.990       .  S
O73          H94   0.990       .  S
O74        Zr871   2.481   1_554  S
O74          C78   1.295       .  A
O75          C78   1.287       .  A
O76          H86   0.990       .  S
O77          H90   0.990       .  S
C78         C766   1.527       .  S
Zr101       O103   2.392       .  S
Zr101       O104   2.508       .  S
Zr101       O107   2.448       .  S
Zr101       O109   2.385       .  S
Zr101       O110   2.402       .  S
Zr101       O111   2.390       .  S
Zr101       O112   2.406       .  S
Zr101       O102   2.437       .  S
O102        H158   0.990       .  S
O102        H166   0.990       .  S
O103        C123   1.275       .  A
O104        C125   1.298       .  A
O105       Zr115   2.415   1_455  S
O105        C124   1.281       .  A
O106       Zr114   2.488       .  S
O106        C125   1.295       .  A
O107        C124   1.289       .  A
O108       Zr116   2.431       .  S
O108        C123   1.285       .  A
O109       Zr114   2.388       .  S
O109       Zr116   2.384       .  S
O110       Zr115   2.396   1_455  S
O110       Zr116   2.366       .  S
O110        H145   0.966       .  S
O111       Zr114   2.397       .  S
O111       Zr131   2.397   1_455  S
O111        H148   0.966       .  S
O112       Zr115   2.415   1_455  S
O112       Zr131   2.385   1_455  S
Zr113       O132   2.427       .  S
Zr113       O140   2.502       .  S
Zr113       O128   2.431       .  S
Zr113       O119   2.394       .  S
Zr113       O120   2.424       .  S
Zr113       O121   2.398       .  S
Zr113       O122   2.372       .  S
Zr113       O138   2.439       .  S
Zr114       O127   2.438   1_455  S
Zr114       O120   2.415   1_455  S
Zr114       O121   2.409   1_455  S
Zr114       O133   2.436       .  S
Zr114       O126   2.435       .  S
Zr115       O141   2.473       .  S
Zr115       O119   2.389       .  S
Zr115       O122   2.374       .  S
Zr115       O117   2.436       .  S
Zr115       O139   2.438       .  S
Zr116       O119   2.411   1_455  S
Zr116       O120   2.390   1_455  S
Zr116       O142   2.437       .  S
Zr116       O143   2.436       .  S
Zr116       O118   2.439       .  S
O117        H154   0.990       .  S
O118        H149   0.990       .  S
O118        H163   0.990       .  S
O120        H146   0.966       .  S
O121       Zr131   2.371       .  S
O122       Zr131   2.380       .  S
O122        H147   0.966       .  S
C123        C699   1.472       .  S
C124        C746   1.463       .  S
C125        C776   1.533       .  S
O126        H162   0.990       .  S
O127        C129   1.285       .  A
O128        C129   1.288       .  A
C129        C649   1.483       .  S
O130       Zr131   2.435   1_455  S
O130        H159   0.990       .  S
Zr131       O136   2.413       .  S
Zr131       O134   2.436       .  S
Zr131       O135   2.437       .  S
O132        C137   1.282       .  A
O133        H150   0.990       .  S
O133        H165   0.990       .  S
O134        H151   0.990       .  S
O135        H155   0.990       .  S
O135        H164   0.990       .  S
O136        C137   1.282       .  A
C137        C609   1.479       .  S
O138        H157   0.990       .  S
O138        H161   0.990       .  S
O139        H153   0.990   1_655  S
O139        H160   0.990       .  S
O140        C144   1.297       .  A
O141        C144   1.290       .  A
O142        H152   0.990       .  S
O143        H156   0.990   1_455  S
C144        C616   1.522       .  S
C167        C168   1.417       .  A
C167        C172   1.399       .  A
C167        C626   1.479       .  S
C168        C169   1.397       .  A
C168        C606   1.474       .  S
C169        C170   1.397       .  A
C169        H174   1.086       .  S
C170        C171   1.412       .  A
C170        C586   1.473       .  S
C171        C172   1.396       .  A
C171        C599   1.476       .  S
C172        H173   1.085       .  S
C175        C176   1.427       .  A
C175        C180   1.396       .  A
C175        C579   1.474       .  S
C176        C177   1.410       .  A
C176        C569   1.504       .  S
C177        C178   1.403       .  A
C177        H182   1.079       .  S
C178        C179   1.401       .  A
C178        C556   1.475       .  S
C179        C180   1.383       .  A
C179        C546   1.464       .  S
C180        H181   1.083       .  S
C183        C184   1.419       .  A
C183        C188   1.411       .  A
C183        C516   1.489       .  S
C184        C185   1.399       .  A
C184        C539   1.476       .  S
C185        C186   1.393       .  A
C185        H190   1.086       .  S
C186        C187   1.403       .  A
C186        C526   1.467       .  S
C187        C188   1.400       .  A
C187        C509   1.479       .  S
C188        H189   1.084       .  S
Zr191       O193   2.456       .  S
Zr191       O194   2.498       .  S
Zr191       O197   2.426       .  S
Zr191       O199   2.380       .  S
Zr191       O200   2.404       .  S
Zr191       O201   2.405       .  S
Zr191       O202   2.421       .  S
Zr191       O192   2.441       .  S
O192        H248   0.990       .  S
O192        H256   0.990       .  S
O193        C213   1.286       .  A
O194        C215   1.295       .  A
O195       Zr205   2.445   1_545  S
O195        C214   1.285       .  A
O196       Zr204   2.479       .  S
O196        C215   1.291       .  A
O197        C214   1.283       .  A
O198       Zr206   2.390       .  S
O198        C213   1.277       .  A
O199       Zr204   2.404       .  S
O199       Zr206   2.392       .  S
O200       Zr205   2.408   1_545  S
O200       Zr206   2.371       .  S
O200        H235   0.965       .  S
O201       Zr204   2.402       .  S
O201       Zr221   2.406   1_545  S
O201        H238   0.965       .  S
O202       Zr205   2.412   1_545  S
O202       Zr221   2.388   1_545  S
Zr203       O222   2.418       .  S
Zr203       O230   2.442       .  S
Zr203       O218   2.389       .  S
Zr203       O209   2.378       .  S
Zr203       O210   2.403       .  S
Zr203       O211   2.383       .  S
Zr203       O212   2.377       .  S
Zr203       O228   2.442       .  S
Zr204       O217   2.463   1_545  S
Zr204       O210   2.409   1_545  S
Zr204       O211   2.391   1_545  S
Zr204       O223   2.436       .  S
Zr204       O216   2.434       .  S
Zr205       O231   2.507       .  S
Zr205       O209   2.382       .  S
Zr205       O212   2.382       .  S
Zr205       O207   2.436       .  S
Zr205       O229   2.441       .  S
Zr206       O209   2.388   1_545  S
Zr206       O210   2.385   1_545  S
Zr206       O232   2.436       .  S
Zr206       O233   2.439   1_545  S
Zr206       O208   2.438       .  S
O207        H244   0.990       .  S
O208        H239   0.991       .  S
O208        H253   0.990       .  S
O210        H236   0.965       .  S
O211       Zr221   2.365       .  S
O212       Zr221   2.384       .  S
O212        H237   0.967       .  S
C213        C589   1.487       .  S
C214        C566   1.489       .  S
C215        C499   1.540       .  S
O216        H252   0.990       .  S
O217        C219   1.292       .  A
O218        C219   1.274       .  A
C219        C519   1.489       .  S
O220       Zr221   2.436   1_545  S
O220        H249   0.990       .  S
Zr221       O226   2.432       .  S
Zr221       O224   2.437       .  S
Zr221       O225   2.437       .  S
O222        C227   1.284       .  A
O223        H240   0.990       .  S
O223        H255   0.990       .  S
O224        H241   0.990       .  S
O225        H245   0.990       .  S
O225        H254   0.990       .  S
O226        C227   1.282       .  A
C227        C686   1.492       .  S
O228        H247   0.991       .  S
O228        H251   0.990       .  S
O229        H243   0.990       .  S
O229        H250   0.990       .  S
O230        C234   1.288       .  A
O231        C234   1.298       .  A
O232        H242   0.990   1_545  S
O233        H246   0.990       .  S
C234        C816   1.532       .  S
Zr257       O259   2.448       .  S
Zr257       O260   2.516       .  S
Zr257       O263   2.479       .  S
Zr257       O265   2.389       .  S
Zr257       O266   2.407       .  S
Zr257       O267   2.406       .  S
Zr257       O268   2.394       .  S
Zr257       O258   2.440       .  S
O258        H314   0.990       .  S
O258        H322   0.990       .  S
O259        C279   1.287       .  A
O260        C281   1.299       .  A
O261       Zr271   2.431       .  S
O261        C280   1.285       .  A
O262       Zr270   2.468       .  S
O262        C281   1.291       .  A
O263        C280   1.296       .  A
O264       Zr272   2.370       .  S
O264        C279   1.269       .  A
O265       Zr270   2.402       .  S
O265       Zr272   2.392       .  S
O266       Zr271   2.395       .  S
O266       Zr272   2.379       .  S
O266        H301   0.965       .  S
O267       Zr270   2.404       .  S
O267       Zr287   2.391       .  S
O267        H304   0.964       .  S
O268       Zr271   2.390       .  S
O268       Zr287   2.361       .  S
Zr269       O288   2.440       .  S
Zr269       O296   2.482       .  S
Zr269       O284   2.433       .  S
Zr269       O275   2.392       .  S
Zr269       O276   2.418       .  S
Zr269       O277   2.389       .  S
Zr269       O278   2.379       .  S
Zr269       O294   2.441       .  S
Zr270       O283   2.453       .  S
Zr270       O276   2.415       .  S
Zr270       O277   2.397       .  S
Zr270       O289   2.436       .  S
Zr270       O282   2.434       .  S
Zr271       O297   2.454       .  S
Zr271       O275   2.375       .  S
Zr271       O278   2.399       .  S
Zr271       O273   2.432       .  S
Zr271       O295   2.439       .  S
Zr272       O275   2.383       .  S
Zr272       O276   2.358       .  S
Zr272       O298   2.436       .  S
Zr272       O299   2.436       .  S
Zr272       O274   2.438       .  S
O273        H310   0.990       .  S
O274        H305   0.990       .  S
O274        H319   0.990       .  S
O276        H302   0.963       .  S
O277       Zr287   2.374       .  S
O278       Zr287   2.394       .  S
O278        H303   0.966       .  S
C279        C729   1.477       .  S
C280        C506   1.490       .  S
C281        C796   1.521       .  S
O282        H318   0.990       .  S
O283        C285   1.288       .  A
O284        C285   1.287       .  A
C285        C559   1.494       .  S
O286       Zr287   2.436       .  S
O286        H315   0.990       .  S
Zr287       O292   2.384       .  S
Zr287       O290   2.437       .  S
Zr287       O291   2.437       .  S
O288        C293   1.284       .  A
O289        H306   0.990       .  S
O289        H321   0.990       .  S
O290        H307   0.990       .  S
O291        H311   0.990       .  S
O291        H320   0.990       .  S
O292        C293   1.275       .  A
C293        C669   1.470       .  S
O294        H313   0.991       .  S
O294        H317   0.989       .  S
O295        H309   0.990       .  S
O295        H316   0.990       .  S
O296        C300   1.292       .  A
O297        C300   1.288       .  A
O298        H308   0.989       .  S
O299        H312   0.990       .  S
C300        C486   1.508       .  S
Zr323       O325   2.407       .  S
Zr323       O329   2.433       .  S
Zr323      O1150   2.505       .  S
Zr323       O332   2.398       .  S
Zr323       O334   2.417       .  S
Zr323      O1155   2.377       .  S
Zr323      O1157   2.394       .  S
Zr323      O1148   2.436       .  S
O324      Zr1147   2.437   1_554  S
O324        H380   0.990       .  S
O324        H388   0.990       .  S
O325        C345   1.280       .  A
O326      Zr1147   2.506   1_554  S
O326        C347   1.298       .  A
O327       Zr337   2.415   1_565  S
O327        C346   1.281       .  A
O328       Zr336   2.469       .  S
O328        C347   1.289       .  A
O329        C346   1.287       .  A
O330       Zr338   2.424       .  S
O330        C345   1.283       .  A
O331       Zr336   2.379       .  S
O331      Zr1147   2.377   1_554  S
O331      Zr1162   2.380   1_554  S
O332       Zr337   2.395   1_565  S
O332       Zr338   2.366       .  S
O332        H367   0.965       .  S
O333       Zr336   2.393       .  S
O333       Zr353   2.403   1_565  S
O333      Zr1147   2.390   1_554  S
O333        H370   0.966       .  S
O334       Zr337   2.412   1_565  S
O334      Zr1177   2.391   1_565  S
Zr335       O354   2.415       .  S
Zr335       O350   2.443       .  S
Zr335      O1186   2.512   1_554  S
Zr335       O342   2.422   1_545  S
Zr335       O343   2.392       .  S
Zr335      O1165   2.392   1_554  S
Zr335      O1168   2.376   1_554  S
Zr335      O1184   2.436   1_554  S
Zr336       O349   2.415   1_565  S
Zr336       O342   2.414       .  S
Zr336       O343   2.396   1_565  S
Zr336       O355   2.440       .  S
Zr336       O348   2.435       .  S
Zr337       O363   2.470       .  S
Zr337       O341   2.392       .  S
Zr337       O344   2.372       .  S
Zr337       O339   2.435       .  S
Zr337       O361   2.436       .  S
Zr338       O341   2.409   1_565  S
Zr338      O1155   2.382       .  S
Zr338      O1166   2.386       .  S
Zr338       O364   2.434       .  S
Zr338       O365   2.435       .  S
Zr338       O340   2.437       .  S
O339        H376   0.990       .  S
O340        H371   0.990       .  S
O340        H385   0.990       .  S
O341      Zr1159   2.390       .  S
O342      Zr1162   2.395   1_554  S
O342        H368   0.966   1_565  S
O343       Zr353   2.357       .  S
O344      Zr1159   2.375       .  S
O344      Zr1177   2.380       .  S
O344        H369   0.966       .  S
C345        C706   1.470       .  S
C346        C536   1.457       .  S
C347        C806   1.522       .  S
O348        H384   0.990       .  S
O349        C351   1.281       .  A
O350        C351   1.289       .  A
C351        C576   1.463       .  S
O352       Zr353   2.434   1_565  S
O352        H381   0.990       .  S
Zr353       O358   2.420       .  S
Zr353      O1158   2.388   1_544  S
Zr353      O1168   2.380   1_554  S
Zr353       O356   2.436       .  S
Zr353       O357   2.437       .  S
O354        C359   1.281       .  A
O355        H372   0.990       .  S
O355        H387   0.990       .  S
O356        H373   0.990   1_545  S
O357        H377   0.990       .  S
O357        H386   0.990       .  S
O358        C359   1.283       .  A
C359        C596   1.468       .  S
O360      Zr1159   2.438       .  S
O360        H379   0.990       .  S
O360        H383   0.990       .  S
O361        H375   0.990       .  S
O361        H382   0.990       .  S
O362      Zr1159   2.508       .  S
O362        C366   1.299       .  A
O363        C366   1.290       .  A
O364        H374   0.990       .  S
O365        H378   0.990   1_565  S
C366        C479   1.524       .  S
Zr389       O391   2.436       .  S
Zr389       O395   2.452       .  S
Zr389      O1216   2.500       .  S
Zr389       O398   2.415       .  S
Zr389       O400   2.404       .  S
Zr389      O1221   2.388       .  S
Zr389      O1223   2.406       .  S
Zr389      O1214   2.441       .  S
O390      Zr1213   2.441       .  S
O390        H454   0.990       .  S
O390       H1270   0.990       .  S
O391        C411   1.277       .  A
O392      Zr1213   2.503   1_554  S
O392        C413   1.296       .  A
O393       Zr403   2.439       .  S
O393        C412   1.287       .  A
O394       Zr402   2.463       .  S
O394        C413   1.289       .  A
O395        C412   1.290       .  A
O396       Zr404   2.397       .  S
O396        C411   1.270       .  A
O397       Zr402   2.399       .  S
O397      Zr1213   2.384   1_554  S
O397      Zr1228   2.387   1_554  S
O398       Zr403   2.403       .  S
O398       Zr404   2.379       .  S
O398        H433   0.966       .  S
O399       Zr402   2.402       .  S
O399       Zr419   2.390       .  S
O399      Zr1213   2.408   1_554  S
O399        H436   0.965       .  S
O400       Zr403   2.404       .  S
O400      Zr1243   2.365       .  S
Zr401       O420   2.416       .  S
Zr401       O416   2.445       .  S
Zr401      O1252   2.470   1_554  S
Zr401       O408   2.407       .  S
Zr401       O409   2.394       .  S
Zr401      O1231   2.393   1_554  S
Zr401      O1234   2.385   1_554  S
Zr401      O1250   2.440       .  S
Zr402       O415   2.446       .  S
Zr402       O408   2.422       .  S
Zr402       O409   2.395       .  S
Zr402       O421   2.438       .  S
Zr402       O414   2.433       .  S
Zr403       O429   2.473       .  S
Zr403       O407   2.391       .  S
Zr403       O410   2.386       .  S
Zr403       O405   2.435       .  S
Zr403       O427   2.436       .  S
Zr404       O407   2.399       .  S
Zr404      O1221   2.385       .  S
Zr404      O1232   2.369       .  S
Zr404       O430   2.438       .  S
Zr404       O431   2.435       .  S
Zr404       O406   2.439       .  S
O405        H442   0.990       .  S
O406        H437   0.990       .  S
O406        H451   0.990       .  S
O407      Zr1225   2.398       .  S
O408      Zr1228   2.368   1_554  S
O408        H434   0.964       .  S
O409       Zr419   2.372       .  S
O410      Zr1225   2.384       .  S
O410      Zr1243   2.388       .  S
O410        H435   0.966       .  S
C411        C529   1.478       .  S
C412        C739   1.479       .  S
C413        C786   1.512       .  S
O414        H450   0.990       .  S
O415        C417   1.287       .  A
O416        C417   1.288       .  A
C417        C679   1.495       .  S
O418       Zr419   2.440       .  S
O418        H447   0.991       .  S
Zr419       O424   2.398       .  S
Zr419      O1224   2.380   1_554  S
Zr419      O1234   2.386   1_554  S
Zr419       O422   2.440       .  S
Zr419       O423   2.439   1_554  S
O420        C425   1.280       .  A
O421        H438   0.990       .  S
O421        H453   0.990       .  S
O422        H439   0.989       .  S
O423        H443   0.989       .  S
O423        H452   0.990       .  S
O424        C425   1.278       .  A
C425        C549   1.468       .  S
O426      Zr1225   2.441       .  S
O426        H445   0.990       .  S
O426       H1273   0.990       .  S
O427        H441   0.990       .  S
O427        H448   0.990       .  S
O428      Zr1225   2.479       .  S
O428        C432   1.292       .  A
O429        C432   1.291       .  A
O430        H440   0.990       .  S
O431        H444   0.990       .  S
C432        C466   1.515       .  S
H446       O1214   0.990       .  S
H449       O1250   0.990       .  S
C455        H456   1.108       .  S
C455        C461   1.573       .  S
C455        C460   1.565       .  S
C455        C459   1.566       .  S
C457        H458   1.108       .  S
C457        C463   1.562       .  S
C457        C462   1.575       .  S
C457        C464   1.567       .  S
C459        C462   1.393       .  D
C459        C476   1.536       .  S
C460        C463   1.391       .  D
C460        C469   1.532       .  S
C461        C464   1.394       .  D
C461        C636   1.538       .  S
C462        C496   1.543       .  S
C463        C489   1.523       .  S
C464        C619   1.541       .  S
C465        C466   1.408       .  A
C465        C470   1.417       .  A
C465        H472   1.083       .  S
C466        C467   1.414       .  A
C467        C468   1.417       .  A
C467       Br474   1.917       .  S
C468        C469   1.413       .  A
C468        H473   1.083       .  S
C469        C470   1.422       .  A
C470       Br471   1.918       .  S
C475        C476   1.412       .  A
C475        C480   1.421       .  A
C475        H482   1.083       .  S
C476        C477   1.421       .  A
C477        C478   1.420       .  A
C477       Br484   1.913       .  S
C478        C479   1.409       .  A
C478        H483   1.083       .  S
C479        C480   1.417       .  A
C480       Br481   1.916       .  S
C485        C486   1.407       .  A
C485        C490   1.410       .  A
C485        H492   1.084       .  S
C486        C487   1.414       .  A
C487        C488   1.415       .  A
C487       Br494   1.917       .  S
C488        C489   1.412       .  A
C488        H493   1.083       .  S
C489        C490   1.418       .  A
C490       Br491   1.915       .  S
C495        C496   1.413       .  A
C495        C500   1.421       .  A
C495        H502   1.082       .  S
C496        C497   1.422       .  A
C497        C498   1.417       .  A
C497       Br504   1.915       .  S
C498        C499   1.414       .  A
C498        H503   1.083       .  S
C499        C500   1.427       .  A
C500       Br501   1.919       .  S
C505        C506   1.405       .  A
C505        C510   1.399       .  A
C505        H512   1.083       .  S
C506        C507   1.423       .  A
C507        C508   1.399       .  A
C507       Br514   1.916       .  S
C508        C509   1.394       .  A
C508        H513   1.084       .  S
C509        C510   1.406       .  A
C510       Br511   1.913       .  S
C515        C516   1.399       .  A
C515        C520   1.385       .  A
C515        H522   1.083       .  S
C516        C517   1.410       .  A
C517        C518   1.404       .  A
C517       Br524   1.916       .  S
C518        C519   1.409       .  A
C518        H523   1.083       .  S
C519        C520   1.424       .  A
C520       Br521   1.929       .  S
C525        C526   1.401       .  A
C525        C530   1.397       .  A
C525        H532   1.082       .  S
C526        C527   1.398       .  A
C527        C528   1.391       .  A
C527       Br534   1.919       .  S
C528        C529   1.410       .  A
C528        H533   1.082       .  S
C529        C530   1.413       .  A
C530       Br531   1.919       .  S
C535        C536   1.398       .  A
C535        C540   1.393       .  A
C535        H542   1.084       .  S
C536        C537   1.402       .  A
C537        C538   1.397       .  A
C537       Br544   1.917       .  S
C538        C539   1.406       .  A
C538        H543   1.083       .  S
C539        C540   1.411       .  A
C540       Br541   1.916       .  S
C545        C546   1.396       .  A
C545        C550   1.383       .  A
C545        H552   1.084       .  S
C546        C547   1.404       .  A
C547        C548   1.399       .  A
C547       Br554   1.914       .  S
C548        C549   1.408       .  A
C548        H553   1.083       .  S
C549        C550   1.411       .  A
C550       Br551   1.922       .  S
C555        C556   1.400       .  A
C555        C560   1.404       .  A
C555        H562   1.083       .  S
C556        C557   1.402       .  A
C557        C558   1.391       .  A
C557       Br564   1.922       .  S
C558        C559   1.411       .  A
C558        H563   1.082       .  S
C559        C560   1.420       .  A
C560       Br561   1.919       .  S
C565        C566   1.404       .  A
C565        C570   1.394       .  A
C565        H572   1.080       .  S
C566        C567   1.411       .  A
C567        C568   1.400       .  A
C567       Br574   1.920       .  S
C568        C569   1.408       .  A
C568        H573   1.080       .  S
C569        C570   1.422       .  A
C570       Br571   1.928       .  S
C575        C576   1.397       .  A
C575        C580   1.394       .  A
C575        H582   1.084       .  S
C576        C577   1.411       .  A
C577        C578   1.399       .  A
C577       Br584   1.920       .  S
C578        C579   1.400       .  A
C578        H583   1.084       .  S
C579        C580   1.411       .  A
C580       Br581   1.920       .  S
C585        C586   1.402       .  A
C585        C590   1.403       .  A
C585        H592   1.084       .  S
C586        C587   1.403       .  A
C587        C588   1.387       .  A
C587       Br594   1.915       .  S
C588        C589   1.408       .  A
C588        H593   1.083       .  S
C589        C590   1.414       .  A
C590       Br591   1.908       .  S
C595        C596   1.398       .  A
C595        C600   1.390       .  A
C595        H602   1.084       .  S
C596        C597   1.409       .  A
C597        C598   1.399       .  A
C597       Br604   1.910       .  S
C598        C599   1.401       .  A
C598        H603   1.084       .  S
C599        C600   1.414       .  A
C600       Br601   1.921       .  S
C605        C606   1.400       .  A
C605        C610   1.400       .  A
C605        H612   1.084       .  S
C606        C607   1.412       .  A
C607        C608   1.391       .  A
C607       Br614   1.922       .  S
C608        C609   1.403       .  A
C608        H613   1.084       .  S
C609        C610   1.412       .  A
C610       Br611   1.913       .  S
C615        C616   1.410       .  A
C615        C620   1.421       .  A
C615        H622   1.083       .  S
C616        C617   1.415       .  A
C617        C618   1.422       .  A
C617       Br624   1.916       .  S
C618        C619   1.416       .  A
C618        H623   1.083       .  S
C619        C620   1.421       .  A
C620       Br621   1.916       .  S
C625        C626   1.406       .  A
C625        C630   1.405       .  A
C625        H632   1.084       .  S
C626        C627   1.406       .  A
C627        C628   1.388       .  A
C627       Br634   1.911       .  S
C628        C629   1.406       .  A
C628        H633   1.083       .  S
C629        C630   1.418       .  A
C630       Br631   1.921       .  S
C635        C636   1.412       .  A
C635        C640   1.417       .  A
C635        H642   1.082       .  S
C636        C637   1.422       .  A
C637        C638   1.417       .  A
C637       Br644   1.916       .  S
C638        C639   1.414       .  A
C638        H643   1.083       .  S
C639        C640   1.425       .  A
C640       Br641   1.919       .  S
C645        C646   1.404       .  A
C645        C650   1.410       .  A
C645        H652   1.083       .  S
C646        C647   1.408       .  A
C647        C648   1.384       .  A
C647       Br654   1.924       .  S
C648        C649   1.397       .  A
C648        H653   1.076       .  S
C649        C650   1.416       .  A
C650       Br651   1.916   1_655  S
C655        C656   1.400       .  A
C655        C660   1.384       .  A
C655        H662   1.078       .  S
C656        C657   1.410       .  A
C657        C658   1.401       .  A
C657       Br664   1.917       .  S
C658        C659   1.401       .  A
C658        H663   1.083       .  S
C659        C660   1.401       .  A
C660       Br661   1.920       .  S
C665        C666   1.402       .  A
C665        C670   1.392       .  A
C665        H672   1.083       .  S
C666        C667   1.401       .  A
C667        C668   1.392       .  A
C667       Br674   1.919       .  S
C668        C669   1.409       .  A
C668        H673   1.084       .  S
C669        C670   1.411       .  A
C670       Br671   1.920       .  S
C675        C676   1.402       .  A
C675        C680   1.401       .  A
C675        H682   1.084       .  S
C676        C677   1.411       .  A
C677        C678   1.398       .  A
C677       Br684   1.922       .  S
C678        C679   1.409       .  A
C678        H683   1.083       .  S
C679        C680   1.420       .  A
C680       Br681   1.920       .  S
C685        C686   1.410       .  A
C685        C690   1.396       .  A
C685        H692   1.081       .  S
C686        C687   1.419       .  A
C687        C688   1.397       .  A
C687       Br694   1.924       .  S
C688        C689   1.401       .  A
C688        H693   1.081       .  S
C689        C690   1.405       .  A
C690       Br691   1.915       .  S
C695        C696   1.393       .  A
C695        C700   1.393       .  A
C695        H702   1.083       .  S
C696        C697   1.405       .  A
C697        C698   1.388       .  A
C697       Br704   1.922       .  S
C698        C699   1.402       .  A
C698        H703   1.083       .  S
C699        C700   1.422       .  A
C700       Br701   1.924       .  S
C705        C706   1.410       .  A
C705        C710   1.397       .  A
C705        H712   1.084       .  S
C706        C707   1.410       .  A
C707        C708   1.390       .  A
C707       Br714   1.921       .  S
C708        C709   1.401       .  A
C708        H713   1.084       .  S
C709        C710   1.399       .  A
C710       Br711   1.916       .  S
C715        C716   1.400       .  A
C715        C720   1.390       .  A
C715        H722   1.084       .  S
C716        C717   1.406       .  A
C717        C718   1.405       .  A
C717       Br724   1.915       .  S
C718        C719   1.409       .  A
C718        H723   1.084       .  S
C719        C720   1.410       .  A
C720       Br721   1.919       .  S
C725        C726   1.390       .  A
C725        C730   1.388       .  A
C725        H732   1.084       .  S
C726        C727   1.404       .  A
C727        C728   1.391       .  A
C727       Br734   1.920       .  S
C728        C729   1.406       .  A
C728        H733   1.083       .  S
C729        C730   1.426       .  A
C730       Br731   1.927       .  S
C735        C736   1.403       .  A
C735        C740   1.397       .  A
C735        H742   1.082       .  S
C736        C737   1.406       .  A
C737        C738   1.404       .  A
C737       Br744   1.916       .  S
C738        C739   1.407       .  A
C738        H743   1.084       .  S
C739        C740   1.408       .  A
C740       Br741   1.917       .  S
C745        C746   1.400       .  A
C745        C750   1.398       .  A
C745        H752   1.083       .  S
C746        C747   1.406       .  A
C747        C748   1.397       .  A
C747       Br754   1.920       .  S
C748        C749   1.405       .  A
C748        H753   1.083       .  S
C749        C750   1.408       .  A
C750       Br751   1.917       .  S
C755        C756   1.407       .  A
C755        C760   1.378       .  A
C755        H762   1.083       .  S
C756        C757   1.414       .  A
C757        C758   1.401       .  A
C757       Br764   1.918       .  S
C758        C759   1.405       .  A
C758        H763   1.084       .  S
C759        C760   1.406       .  A
C760       Br761   1.925       .  S
C765        C766   1.412       .  A
C765        C770   1.413       .  A
C765        H772   1.083       .  S
C766        C767   1.428       .  A
C767        C768   1.413       .  A
C767       Br774   1.921       .  S
C768        C769   1.406       .  A
C768        H773   1.083       .  S
C769        C770   1.416       .  A
C770       Br771   1.914       .  S
C775        C776   1.414       .  A
C775        C780   1.426       .  A
C775        H782   1.083       .  S
C776        C777   1.418       .  A
C777        C778   1.422       .  A
C777       Br784   1.916       .  S
C778        C779   1.411       .  A
C778        H783   1.083       .  S
C779        C780   1.419       .  A
C780       Br781   1.916       .  S
C785        C786   1.401       .  A
C785        C790   1.412       .  A
C785        H792   1.084       .  S
C786        C787   1.416       .  A
C787        C788   1.420       .  A
C787       Br794   1.917       .  S
C788        C789   1.415       .  A
C788        H793   1.083       .  S
C789        C790   1.423       .  A
C790       Br791   1.909       .  S
C795        C796   1.410       .  A
C795        C800   1.416       .  A
C795        H802   1.083       .  S
C796        C797   1.415       .  A
C797        C798   1.422       .  A
C797       Br804   1.916       .  S
C798        C799   1.414       .  A
C798        H803   1.083       .  S
C799        C800   1.419       .  A
C800       Br801   1.917       .  S
C805        C806   1.407       .  A
C805        C810   1.419       .  A
C805        H812   1.083       .  S
C806        C807   1.416       .  A
C807        C808   1.423       .  A
C807       Br814   1.917       .  S
C808        C809   1.415       .  A
C808        H813   1.083       .  S
C809        C810   1.425       .  A
C810       Br811   1.916       .  S
C815        C816   1.416       .  A
C815        C820   1.411       .  A
C815        H822   1.083       .  S
C816        C817   1.423       .  A
C817        C818   1.420       .  A
C817       Br824   1.918       .  S
C818        C819   1.413       .  A
C818        H823   1.083       .  S
C819        C820   1.416       .  A
C820       Br821   1.918       .  S
C825        H826   1.110       .  S
C825        C831   1.571       .  S
C825        C830   1.565       .  S
C825        C829   1.565       .  S
C827        H828   1.109       .  S
C827        C833   1.572       .  S
C827        C832   1.575       .  S
C827        C834   1.557       .  S
C829        C832   1.395       .  D
C829       C1613   1.537       .  S
C830        C833   1.389       .  D
C830       C1633   1.536       .  S
C831        C834   1.386       .  D
C831       C1593   1.523       .  S
C832       C1623   1.535       .  S
C833       C1643   1.531       .  S
C834       C1603   1.532       .  S
C835        C836   1.417       .  A
C835        C840   1.393       .  A
C835       C1573   1.480       .  S
C836        C837   1.406       .  A
C836       C1583   1.475       .  S
C837        C838   1.397       .  A
C837        H842   1.085       .  S
C838        C839   1.407       .  A
C838       C1560   1.486       .  S
C839        C840   1.393       .  A
C839       C1550   1.456       .  S
C840        H841   1.086       .  S
C843        C844   1.408       .  A
C843        C848   1.395       .  A
C843       C1520   1.464       .  S
C844        C845   1.395       .  A
C844       C1540   1.473       .  S
C845        C846   1.397       .  A
C845        H850   1.086       .  S
C846        C847   1.415       .  A
C846       C1533   1.468       .  S
C847        C848   1.397       .  A
C847       C1513   1.479       .  S
C848        H849   1.086       .  S
C851        C852   1.414       .  A
C851        C856   1.398       .  A
C851       C1490   1.469       .  S
C852        C853   1.404       .  A
C852       C1500   1.492       .  S
C853        C854   1.405       .  A
C853        H858   1.084       .  S
C854        C855   1.415       .  A
C854       C1480   1.471       .  S
C855        C856   1.396       .  A
C855       C1470   1.484       .  S
C856        H857   1.086       .  S
Zr859       O861   2.436       .  S
Zr859       O865   2.415       .  S
Zr859       O868   2.390       .  S
Zr859       O870   2.413       .  S
O860        H916   0.990       .  S
O860        H924   0.990       .  S
O861        C881   1.283       .  A
O862        C883   1.296       .  A
O863       Zr873   2.426   1_655  S
O863        C882   1.283       .  A
O864       Zr872   2.475       .  S
O864        C883   1.291       .  A
O865        C882   1.283       .  A
O866       Zr874   2.400       .  S
O866        C881   1.280       .  A
O867       Zr872   2.394       .  S
O868       Zr873   2.391   1_655  S
O868       Zr874   2.366       .  S
O868        H903   0.962       .  S
O869       Zr872   2.393       .  S
O869       Zr889   2.405   1_655  S
O869        H906   0.966       .  S
O870       Zr873   2.410   1_655  S
Zr871       O890   2.425       .  S
Zr871       O886   2.404       .  S
Zr871       O878   2.411       .  S
Zr871       O879   2.388       .  S
Zr872       O885   2.430   1_655  S
Zr872       O878   2.413   1_655  S
Zr872       O879   2.397   1_655  S
Zr872       O891   2.438       .  S
Zr872       O884   2.434       .  S
Zr873       O899   2.462       .  S
Zr873       O877   2.387       .  S
Zr873       O880   2.386       .  S
Zr873       O875   2.436       .  S
Zr873       O897   2.439       .  S
Zr874       O877   2.393   1_655  S
Zr874       O900   2.435       .  S
Zr874       O901   2.435   1_655  S
Zr874       O876   2.437       .  S
O875        H912   0.990       .  S
O876        H907   0.990       .  S
O876        H921   0.990       .  S
O878        H904   0.965       .  S
O879       Zr889   2.364       .  S
O880        H905   0.965       .  S
C881       C1453   1.488       .  S
C882       C1483   1.455       .  S
C883       C1463   1.539       .  S
O884        H920   0.990       .  S
O885        C887   1.283       .  A
O886        C887   1.282       .  A
C887       C1580   1.482       .  S
O888       Zr889   2.435   1_655  S
O888        H917   0.990       .  S
Zr889       O894   2.428       .  S
Zr889       O892   2.435       .  S
Zr889       O893   2.437       .  S
O890        C895   1.283       .  A
O891        H908   0.990       .  S
O891        H923   0.990       .  S
O892        H909   0.990       .  S
O893        H913   0.990       .  S
O893        H922   0.989       .  S
O894        C895   1.283       .  A
C895       C1543   1.474       .  S
O896        H915   0.990       .  S
O896        H919   0.990       .  S
O897        H911   0.990       .  S
O897        H918   0.990       .  S
O898        C902   1.293       .  A
O899        C902   1.288       .  A
O900        H910   0.990   1_655  S
O901        H914   0.990       .  S
C902       C1590   1.527       .  S
Zr925       O927   2.402       .  S
Zr925       O928   2.504       .  S
Zr925       O931   2.432       .  S
Zr925       O933   2.382       .  S
Zr925       O934   2.400       .  S
Zr925       O935   2.386       .  S
Zr925       O936   2.413       .  S
Zr925       O926   2.437       .  S
O926        H982   0.990       .  S
O926        H990   0.990       .  S
O927        C947   1.277       .  A
O928        C949   1.297       .  A
O929       Zr939   2.424   1_455  S
O929        C948   1.283       .  A
O930       Zr938   2.473       .  S
O930        C949   1.292       .  A
O931        C948   1.286       .  A
O932       Zr940   2.424       .  S
O932        C947   1.284       .  A
O933       Zr938   2.387       .  S
O933       Zr940   2.388       .  S
O934       Zr939   2.390   1_455  S
O934       Zr940   2.364       .  S
O934        H969   0.966       .  S
O935       Zr938   2.388       .  S
O935       Zr955   2.398   1_455  S
O935        H972   0.966       .  S
O936       Zr939   2.410   1_455  S
O936       Zr955   2.386   1_455  S
Zr937       O956   2.406       .  S
Zr937       O964   2.510       .  S
Zr937       O952   2.453       .  S
Zr937       O943   2.394       .  S
Zr937       O944   2.418       .  S
Zr937       O945   2.396       .  S
Zr937       O946   2.381       .  S
Zr937       O962   2.436       .  S
Zr938       O951   2.422   1_455  S
Zr938       O944   2.419   1_455  S
Zr938       O945   2.403   1_455  S
Zr938       O957   2.437       .  S
Zr938       O950   2.435       .  S
Zr939       O965   2.468       .  S
Zr939       O943   2.394       .  S
Zr939       O946   2.373       .  S
Zr939       O941   2.434       .  S
Zr939       O963   2.438       .  S
Zr940       O943   2.402   1_455  S
Zr940       O944   2.391   1_455  S
Zr940       O966   2.437       .  S
Zr940       O967   2.435       .  S
Zr940       O942   2.436       .  S
O941        H978   0.990       .  S
O942        H973   0.990       .  S
O942        H987   0.989       .  S
O944        H970   0.966       .  S
O945       Zr955   2.369       .  S
O946       Zr955   2.374       .  S
O946        H971   0.966       .  S
C947       C1523   1.477       .  S
C948       C1570   1.461       .  S
C949       C1600   1.527       .  S
O950        H986   0.990       .  S
O951        C953   1.282       .  A
O952        C953   1.293       .  A
C953       C1473   1.485       .  S
O954       Zr955   2.435   1_455  S
O954        H983   0.990       .  S
Zr955       O960   2.423       .  S
Zr955       O958   2.435       .  S
Zr955       O959   2.438       .  S
O956        C961   1.278       .  A
O957        H974   0.990       .  S
O957        H989   0.990       .  S
O958        H975   0.990       .  S
O959        H979   0.990       .  S
O959        H988   0.990       .  S
O960        C961   1.285       .  A
C961       C1433   1.470       .  S
O962        H981   0.990       .  S
O962        H985   0.990       .  S
O963        H977   0.990       .  S
O963        H984   0.990       .  S
O964        C968   1.300       .  A
O965        C968   1.291       .  A
O966        H976   0.990       .  S
O967        H980   0.990   1_455  S
C968       C1440   1.528       .  S
C991        C992   1.414       .  A
C991        C996   1.396       .  A
C991       C1450   1.475       .  S
C992        C993   1.394       .  A
C992       C1430   1.468       .  S
C993        C994   1.396       .  A
C993        H998   1.086       .  S
C994        C995   1.414       .  A
C994       C1410   1.473       .  S
C995        C996   1.393       .  A
C995       C1423   1.474       .  S
C996        H997   1.085       .  S
C999       C1000   1.425       .  A
C999       C1004   1.395       .  A
C999       C1403   1.467       .  S
C1000      C1001   1.410       .  A
C1000      C1393   1.504       .  S
C1001      C1002   1.402       .  A
C1001      H1006   1.078       .  S
C1002      C1003   1.398       .  A
C1002      C1380   1.472       .  S
C1003      C1004   1.380       .  A
C1003      C1370   1.459       .  S
C1004      H1005   1.086       .  S
C1007      C1008   1.420       .  A
C1007      C1012   1.413       .  A
C1007      C1340   1.492       .  S
C1008      C1009   1.400       .  A
C1008      C1363   1.475       .  S
C1009      C1010   1.393       .  A
C1009      H1014   1.086       .  S
C1010      C1011   1.403       .  A
C1010      C1350   1.468       .  S
C1011      C1012   1.403       .  A
C1011      C1333   1.483       .  S
C1012      H1013   1.084       .  S
Zr1015     O1017   2.443       .  S
Zr1015     O1018   2.472       .  S
Zr1015     O1021   2.390       .  S
Zr1015     O1023   2.373       .  S
Zr1015     O1024   2.393       .  S
Zr1015     O1025   2.391       .  S
Zr1015     O1026   2.412       .  S
Zr1015     O1016   2.441       .  S
O1016      H1072   0.990       .  S
O1016      H1080   0.990       .  S
O1017      C1037   1.284       .  A
O1018      C1039   1.292       .  A
O1019     Zr1029   2.457   1_545  S
O1019      C1038   1.288       .  A
O1020     Zr1028   2.488       .  S
O1020      C1039   1.294       .  A
O1021      C1038   1.280       .  A
O1022     Zr1030   2.392       .  S
O1022      C1037   1.277       .  A
O1023     Zr1028   2.396       .  S
O1023     Zr1030   2.386       .  S
O1024     Zr1029   2.405   1_545  S
O1024     Zr1030   2.371       .  S
O1024      H1059   0.966       .  S
O1025     Zr1028   2.396       .  S
O1025     Zr1045   2.397   1_545  S
O1025      H1062   0.966       .  S
O1026     Zr1029   2.416   1_545  S
O1026     Zr1045   2.388   1_545  S
Zr1027     O1046   2.419       .  S
Zr1027     O1054   2.448       .  S
Zr1027     O1042   2.400       .  S
Zr1027     O1033   2.382       .  S
Zr1027     O1034   2.402       .  S
Zr1027     O1035   2.386       .  S
Zr1027     O1036   2.376       .  S
Zr1027     O1052   2.446       .  S
Zr1028     O1041   2.454   1_545  S
Zr1028     O1034   2.411   1_545  S
Zr1028     O1035   2.398   1_545  S
Zr1028     O1047   2.438       .  S
Zr1028     O1040   2.434       .  S
Zr1029     O1055   2.503       .  S
Zr1029     O1033   2.388       .  S
Zr1029     O1036   2.387       .  S
Zr1029     O1031   2.434       .  S
Zr1029     O1053   2.439       .  S
Zr1030     O1033   2.393   1_545  S
Zr1030     O1034   2.376   1_545  S
Zr1030     O1056   2.437       .  S
Zr1030     O1057   2.434   1_545  S
Zr1030     O1032   2.438       .  S
O1031      H1068   0.990       .  S
O1032      H1063   0.990       .  S
O1032      H1077   0.990       .  S
O1034      H1060   0.966       .  S
O1035     Zr1045   2.368       .  S
O1036     Zr1045   2.387       .  S
O1036      H1061   0.966       .  S
C1037      C1413   1.486       .  S
C1038      C1390   1.491       .  S
C1039      C1323   1.535       .  S
O1040      H1076   0.990       .  S
O1041      C1043   1.289       .  A
O1042      C1043   1.276       .  A
C1043      C1343   1.488       .  S
O1044     Zr1045   2.435   1_545  S
O1044      H1073   0.990       .  S
Zr1045     O1050   2.416       .  S
Zr1045     O1048   2.438       .  S
Zr1045     O1049   2.437       .  S
O1046      C1051   1.284       .  A
O1047      H1064   0.990       .  S
O1047      H1079   0.990       .  S
O1048      H1065   0.990       .  S
O1049      H1069   0.990       .  S
O1049      H1078   0.990       .  S
O1050      C1051   1.278       .  A
C1051      C1510   1.486       .  S
O1052      H1071   0.990       .  S
O1052      H1075   0.990       .  S
O1053      H1067   0.990   1_565  S
O1053      H1074   0.990       .  S
O1054      C1058   1.288       .  A
O1055      C1058   1.297       .  A
O1056      H1066   0.990       .  S
O1057      H1070   0.990       .  S
C1058      C1640   1.533       .  S
Zr1081     O1083   2.441       .  S
Zr1081     O1084   2.514       .  S
Zr1081     O1087   2.473       .  S
Zr1081     O1089   2.384       .  S
Zr1081     O1090   2.406       .  S
Zr1081     O1091   2.405       .  S
Zr1081     O1092   2.394       .  S
Zr1081     O1082   2.440       .  S
O1082      H1138   0.990       .  S
O1082      H1146   0.990       .  S
O1083      C1103   1.285       .  A
O1084      C1105   1.298       .  A
O1085     Zr1095   2.420       .  S
O1085      C1104   1.281       .  A
O1086     Zr1094   2.467       .  S
O1086      C1105   1.291       .  A
O1087      C1104   1.295       .  A
O1088     Zr1096   2.373       .  S
O1088      C1103   1.269       .  A
O1089     Zr1094   2.400       .  S
O1089     Zr1096   2.393       .  S
O1090     Zr1095   2.401       .  S
O1090     Zr1096   2.378       .  S
O1090      H1125   0.966       .  S
O1091     Zr1094   2.399       .  S
O1091     Zr1111   2.386       .  S
O1091      H1128   0.964       .  S
O1092     Zr1095   2.391       .  S
O1092     Zr1111   2.364       .  S
Zr1093     O1112   2.441       .  S
Zr1093     O1120   2.497       .  S
Zr1093     O1108   2.434       .  S
Zr1093     O1099   2.389       .  S
Zr1093     O1100   2.420       .  S
Zr1093     O1101   2.398       .  S
Zr1093     O1102   2.379       .  S
Zr1093     O1118   2.441       .  S
Zr1094     O1107   2.446       .  S
Zr1094     O1100   2.414       .  S
Zr1094     O1101   2.405       .  S
Zr1094     O1113   2.437       .  S
Zr1094     O1106   2.435       .  S
Zr1095     O1121   2.458       .  S
Zr1095     O1099   2.378       .  S
Zr1095     O1102   2.395       .  S
Zr1095     O1097   2.436       .  S
Zr1095     O1119   2.436       .  S
Zr1096     O1099   2.384       .  S
Zr1096     O1100   2.361       .  S
Zr1096     O1122   2.436       .  S
Zr1096     O1123   2.439       .  S
Zr1096     O1098   2.438       .  S
O1097      H1134   0.990       .  S
O1098      H1129   0.990       .  S
O1098      H1143   0.990       .  S
O1100      H1126   0.963       .  S
O1101     Zr1111   2.380       .  S
O1102     Zr1111   2.394       .  S
O1102      H1127   0.966       .  S
C1103      C1553   1.477       .  S
C1104      C1330   1.495       .  S
C1105      C1620   1.519       .  S
O1106      H1142   0.990       .  S
O1107      C1109   1.286       .  A
O1108      C1109   1.287       .  A
C1109      C1383   1.492       .  S
O1110     Zr1111   2.436       .  S
O1110      H1139   0.990       .  S
Zr1111     O1116   2.383       .  S
Zr1111     O1114   2.436       .  S
Zr1111     O1115   2.437       .  S
O1112      C1117   1.284       .  A
O1113      H1130   0.990       .  S
O1113      H1145   0.990       .  S
O1114      H1131   0.990       .  S
O1115      H1135   0.990       .  S
O1115      H1144   0.990       .  S
O1116      C1117   1.276       .  A
C1117      C1493   1.477       .  S
O1118      H1137   0.991       .  S
O1118      H1141   0.988       .  S
O1119      H1133   0.990       .  S
O1119      H1140   0.990       .  S
O1120      C1124   1.296       .  A
O1121      C1124   1.289       .  A
O1122      H1132   0.990       .  S
O1123      H1136   0.990       .  S
C1124      C1310   1.515       .  S
Zr1147     O1149   2.405       .  S
Zr1147     O1153   2.437       .  S
Zr1147     O1156   2.402       .  S
Zr1147     O1158   2.414       .  S
O1148      H1204   0.990       .  S
O1148      H1212   0.990       .  S
O1149      C1169   1.280       .  A
O1150      C1171   1.297       .  A
O1151     Zr1161   2.415   1_565  S
O1151      C1170   1.281       .  A
O1152     Zr1160   2.465       .  S
O1152      C1171   1.288       .  A
O1153      C1170   1.287       .  A
O1154     Zr1162   2.430       .  S
O1154      C1169   1.284       .  A
O1155     Zr1160   2.378       .  S
O1156     Zr1161   2.397   1_565  S
O1156     Zr1162   2.364       .  S
O1156      H1191   0.965       .  S
O1157     Zr1160   2.390       .  S
O1157     Zr1177   2.406   1_565  S
O1157      H1194   0.966       .  S
O1158     Zr1161   2.413   1_565  S
Zr1159     O1178   2.405       .  S
Zr1159     O1174   2.433       .  S
Zr1159     O1166   2.419   1_545  S
Zr1159     O1167   2.394       .  S
Zr1160     O1173   2.400   1_565  S
Zr1160     O1166   2.414       .  S
Zr1160     O1167   2.400   1_565  S
Zr1160     O1179   2.441       .  S
Zr1160     O1172   2.436       .  S
Zr1161     O1187   2.477       .  S
Zr1161     O1165   2.389       .  S
Zr1161     O1168   2.372       .  S
Zr1161     O1163   2.433       .  S
Zr1161     O1185   2.438       .  S
Zr1162     O1165   2.406   1_565  S
Zr1162     O1188   2.438       .  S
Zr1162     O1189   2.436       .  S
Zr1162     O1164   2.439       .  S
O1163      H1200   0.990       .  S
O1164      H1195   0.990       .  S
O1164      H1209   0.990       .  S
O1166      H1192   0.966   1_565  S
O1167     Zr1177   2.358       .  S
O1168      H1193   0.966       .  S
C1169      C1530   1.471       .  S
C1170      C1360   1.457       .  S
C1171      C1630   1.519       .  S
O1172      H1208   0.990       .  S
O1173      C1175   1.278       .  A
O1174      C1175   1.287       .  A
C1175      C1400   1.454       .  S
O1176     Zr1177   2.437   1_565  S
O1176      H1205   0.990       .  S
Zr1177     O1182   2.429       .  S
Zr1177     O1180   2.436       .  S
Zr1177     O1181   2.438       .  S
O1178      C1183   1.278       .  A
O1179      H1196   0.990       .  S
O1179      H1211   0.990       .  S
O1180      H1197   0.990       .  S
O1181      H1201   0.990       .  S
O1181      H1210   0.990       .  S
O1182      C1183   1.285       .  A
C1183      C1420   1.466       .  S
O1184      H1203   0.990       .  S
O1184      H1207   0.990       .  S
O1185      H1199   0.990       .  S
O1185      H1206   0.990   1_545  S
O1186      C1190   1.300       .  A
O1187      C1190   1.292       .  A
O1188      H1198   0.990       .  S
O1189      H1202   0.990   1_565  S
C1190      C1303   1.529       .  S
Zr1213     O1215   2.453       .  S
Zr1213     O1219   2.448       .  S
Zr1213     O1222   2.412       .  S
Zr1213     O1224   2.411       .  S
O1214      H1278   0.990       .  S
O1215      C1235   1.280       .  A
O1216      C1237   1.296       .  A
O1217     Zr1227   2.446       .  S
O1217      C1236   1.287       .  A
O1218     Zr1226   2.463       .  S
O1218      C1237   1.289       .  A
O1219      C1236   1.288       .  A
O1220     Zr1228   2.390       .  S
O1220      C1235   1.268       .  A
O1221     Zr1226   2.400       .  S
O1222     Zr1227   2.405       .  S
O1222     Zr1228   2.383       .  S
O1222      H1257   0.966       .  S
O1223     Zr1226   2.400       .  S
O1223     Zr1243   2.386       .  S
O1223      H1260   0.965       .  S
O1224     Zr1227   2.403       .  S
Zr1225     O1244   2.423       .  S
Zr1225     O1240   2.461       .  S
Zr1225     O1232   2.410       .  S
Zr1225     O1233   2.397       .  S
Zr1226     O1239   2.451       .  S
Zr1226     O1232   2.423       .  S
Zr1226     O1233   2.392       .  S
Zr1226     O1245   2.438       .  S
Zr1226     O1238   2.431       .  S
Zr1227     O1253   2.482       .  S
Zr1227     O1231   2.391       .  S
Zr1227     O1234   2.390       .  S
Zr1227     O1229   2.435       .  S
Zr1227     O1251   2.439       .  S
Zr1228     O1231   2.396       .  S
Zr1228     O1254   2.437       .  S
Zr1228     O1255   2.435       .  S
Zr1228     O1230   2.439       .  S
O1229      H1266   0.990       .  S
O1230      H1261   0.990       .  S
O1230      H1275   0.990   1_556  S
O1232      H1258   0.963       .  S
O1233     Zr1243   2.384       .  S
O1234      H1259   0.966       .  S
C1235      C1353   1.483       .  S
C1236      C1563   1.482       .  S
C1237      C1610   1.512       .  S
O1238      H1274   0.990       .  S
O1239      C1241   1.288       .  A
O1240      C1241   1.291       .  A
C1241      C1503   1.500       .  S
O1242     Zr1243   2.442       .  S
O1242      H1271   0.990       .  S
Zr1243     O1248   2.373       .  S
Zr1243     O1246   2.439       .  S
Zr1243     O1247   2.442       .  S
O1244      C1249   1.282       .  A
O1245      H1262   0.990       .  S
O1245      H1277   0.990       .  S
O1246      H1263   0.991       .  S
O1247      H1267   0.989       .  S
O1247      H1276   0.990       .  S
O1248      C1249   1.272       .  A
C1249      C1373   1.467       .  S
O1250      H1269   0.990       .  S
O1251      H1265   0.990       .  S
O1251      H1272   0.990       .  S
O1252      C1256   1.291       .  A
O1253      C1256   1.293       .  A
O1254      H1264   0.990       .  S
O1255      H1268   0.990       .  S
C1256      C1290   1.512       .  S
C1279      H1280   1.109       .  S
C1279      C1285   1.574       .  S
C1279      C1284   1.566       .  S
C1279      C1283   1.567       .  S
C1281      H1282   1.109       .  S
C1281      C1287   1.563       .  S
C1281      C1286   1.574       .  S
C1281      C1288   1.561       .  S
C1283      C1286   1.393       .  D
C1283      C1300   1.543       .  S
C1284      C1287   1.392       .  D
C1284      C1293   1.526       .  S
C1285      C1288   1.391       .  D
C1285      C1460   1.541       .  S
C1286      C1320   1.538       .  S
C1287      C1313   1.531       .  S
C1288      C1443   1.529       .  S
C1289      C1290   1.409       .  A
C1289      C1294   1.416       .  A
C1289      H1296   1.083       .  S
C1290      C1291   1.414       .  A
C1291      C1292   1.415       .  A
C1291     Br1298   1.917       .  S
C1292      C1293   1.411       .  A
C1292      H1297   1.083       .  S
C1293      C1294   1.419       .  A
C1294     Br1295   1.919       .  S
C1299      C1300   1.413       .  A
C1299      C1304   1.423       .  A
C1299      H1306   1.083       .  S
C1300      C1301   1.424       .  A
C1301      C1302   1.423       .  A
C1301     Br1308   1.914       .  S
C1302      C1303   1.410       .  A
C1302      H1307   1.083       .  S
C1303      C1304   1.418       .  A
C1304     Br1305   1.916       .  S
C1309      C1310   1.408       .  A
C1309      C1314   1.414       .  A
C1309      H1316   1.083       .  S
C1310      C1311   1.414       .  A
C1311      C1312   1.419       .  A
C1311     Br1318   1.917       .  S
C1312      C1313   1.414       .  A
C1312      H1317   1.083       .  S
C1313      C1314   1.419       .  A
C1314     Br1315   1.915       .  S
C1319      C1320   1.412       .  A
C1319      C1324   1.418       .  A
C1319      H1326   1.082       .  S
C1320      C1321   1.421       .  A
C1321      C1322   1.416       .  A
C1321     Br1328   1.916       .  S
C1322      C1323   1.414       .  A
C1322      H1327   1.083       .  S
C1323      C1324   1.424       .  A
C1324     Br1325   1.919       .  S
C1329      C1330   1.406       .  A
C1329      C1334   1.396       .  A
C1329      H1336   1.083       .  S
C1330      C1331   1.425       .  A
C1331      C1332   1.401       .  A
C1331     Br1338   1.922       .  S
C1332      C1333   1.397       .  A
C1332      H1337   1.082       .  S
C1333      C1334   1.406       .  A
C1334     Br1335   1.912       .  S
C1339      C1340   1.398       .  A
C1339      C1344   1.382       .  A
C1339      H1346   1.079       .  S
C1340      C1341   1.411       .  A
C1341      C1342   1.407       .  A
C1341     Br1348   1.917       .  S
C1342      C1343   1.411       .  A
C1342      H1347   1.083       .  S
C1343      C1344   1.421       .  A
C1344     Br1345   1.928       .  S
C1349      C1350   1.401       .  A
C1349      C1354   1.401       .  A
C1349      H1356   1.082       .  S
C1350      C1351   1.398       .  A
C1351      C1352   1.390       .  A
C1351     Br1358   1.921       .  S
C1352      C1353   1.411       .  A
C1352      H1357   1.082       .  S
C1353      C1354   1.413       .  A
C1354     Br1355   1.918       .  S
C1359      C1360   1.398       .  A
C1359      C1364   1.392       .  A
C1359      H1366   1.084       .  S
C1360      C1361   1.402       .  A
C1361      C1362   1.397       .  A
C1361     Br1368   1.917       .  S
C1362      C1363   1.406       .  A
C1362      H1367   1.084       .  S
C1363      C1364   1.410       .  A
C1364     Br1365   1.917       .  S
C1369      C1370   1.395       .  A
C1369      C1374   1.382       .  A
C1369      H1376   1.084       .  S
C1370      C1371   1.401       .  A
C1371      C1372   1.395       .  A
C1371     Br1378   1.914       .  S
C1372      C1373   1.407       .  A
C1372      H1377   1.083       .  S
C1373      C1374   1.417       .  A
C1374     Br1375   1.928       .  S
C1379      C1380   1.398       .  A
C1379      C1384   1.401       .  A
C1379      H1386   1.084       .  S
C1380      C1381   1.403       .  A
C1381      C1382   1.391       .  A
C1381     Br1388   1.922       .  S
C1382      C1383   1.411       .  A
C1382      H1387   1.083       .  S
C1383      C1384   1.422       .  A
C1384     Br1385   1.920       .  S
C1389      C1390   1.406       .  A
C1389      C1394   1.389       .  A
C1389      H1396   1.083       .  S
C1390      C1391   1.409       .  A
C1391      C1392   1.404       .  A
C1391     Br1398   1.918       .  S
C1392      C1393   1.413       .  A
C1392      H1397   1.081       .  S
C1393      C1394   1.420       .  A
C1394     Br1395   1.927       .  S
C1399      C1400   1.395       .  A
C1399      C1404   1.388       .  A
C1399      H1406   1.084       .  S
C1400      C1401   1.410       .  A
C1401      C1402   1.395       .  A
C1401     Br1408   1.920       .  S
C1402      C1403   1.400       .  A
C1402      H1407   1.084       .  S
C1403      C1404   1.411       .  A
C1404     Br1405   1.922       .  S
C1409      C1410   1.403       .  A
C1409      C1414   1.401       .  A
C1409      H1416   1.083       .  S
C1410      C1411   1.405       .  A
C1411      C1412   1.387       .  A
C1411     Br1418   1.916       .  S
C1412      C1413   1.408       .  A
C1412      H1417   1.083       .  S
C1413      C1414   1.415       .  A
C1414     Br1415   1.915       .  S
C1419      C1420   1.398       .  A
C1419      C1424   1.391       .  A
C1419      H1426   1.084       .  S
C1420      C1421   1.411       .  A
C1421      C1422   1.395       .  A
C1421     Br1428   1.912       .  S
C1422      C1423   1.398       .  A
C1422      H1427   1.084       .  S
C1423      C1424   1.416       .  A
C1424     Br1425   1.924       .  S
C1429      C1430   1.400       .  A
C1429      C1434   1.399       .  A
C1429      H1436   1.084       .  S
C1430      C1431   1.411       .  A
C1431      C1432   1.387       .  A
C1431     Br1438   1.923       .  S
C1432      C1433   1.399       .  A
C1432      H1437   1.084       .  S
C1433      C1434   1.411       .  A
C1434     Br1435   1.914       .  S
C1439      C1440   1.414       .  A
C1439      C1444   1.420       .  A
C1439      H1446   1.083       .  S
C1440      C1441   1.419       .  A
C1441      C1442   1.422       .  A
C1441     Br1448   1.915       .  S
C1442      C1443   1.411       .  A
C1442      H1447   1.083       .  S
C1443      C1444   1.414       .  A
C1444     Br1445   1.917       .  S
C1449      C1450   1.404       .  A
C1449      C1454   1.401       .  A
C1449      H1456   1.084       .  S
C1450      C1451   1.407       .  A
C1451      C1452   1.388       .  A
C1451     Br1458   1.912       .  S
C1452      C1453   1.407       .  A
C1452      H1457   1.083       .  S
C1453      C1454   1.418       .  A
C1454     Br1455   1.922       .  S
C1459      C1460   1.411       .  A
C1459      C1464   1.419       .  A
C1459      H1466   1.081       .  S
C1460      C1461   1.422       .  A
C1461      C1462   1.418       .  A
C1461     Br1468   1.913       .  S
C1462      C1463   1.413       .  A
C1462      H1467   1.083       .  S
C1463      C1464   1.427       .  A
C1464     Br1465   1.920       .  S
C1469      C1470   1.403       .  A
C1469      C1474   1.410       .  A
C1469      H1476   1.083       .  S
C1470      C1471   1.409       .  A
C1471      C1472   1.387       .  A
C1471     Br1478   1.922       .  S
C1472      C1473   1.395       .  A
C1472      H1477   1.075       .  S
C1473      C1474   1.418       .  A
C1474     Br1475   1.917   1_655  S
C1479      C1480   1.396       .  A
C1479      C1484   1.381       .  A
C1479      H1486   1.077       .  S
C1480      C1481   1.409       .  A
C1481      C1482   1.404       .  A
C1481     Br1488   1.916       .  S
C1482      C1483   1.403       .  A
C1482      H1487   1.083       .  S
C1483      C1484   1.401       .  A
C1484     Br1485   1.915       .  S
C1489      C1490   1.399       .  A
C1489      C1494   1.390       .  A
C1489      H1496   1.082       .  S
C1490      C1491   1.401       .  A
C1491      C1492   1.394       .  A
C1491     Br1498   1.919       .  S
C1492      C1493   1.412       .  A
C1492      H1497   1.083       .  S
C1493      C1494   1.413       .  A
C1494     Br1495   1.919       .  S
C1499      C1500   1.400       .  A
C1499      C1504   1.403       .  A
C1499      H1506   1.084       .  S
C1500      C1501   1.411       .  A
C1501      C1502   1.400       .  A
C1501     Br1508   1.922       .  S
C1502      C1503   1.409       .  A
C1502      H1507   1.083       .  S
C1503      C1504   1.422       .  A
C1504     Br1505   1.917       .  S
C1509      C1510   1.408       .  A
C1509      C1514   1.394       .  A
C1509      H1516   1.081       .  S
C1510      C1511   1.419       .  A
C1511      C1512   1.395       .  A
C1511     Br1518   1.925       .  S
C1512      C1513   1.401       .  A
C1512      H1517   1.080       .  S
C1513      C1514   1.405       .  A
C1514     Br1515   1.916       .  S
C1519      C1520   1.396       .  A
C1519      C1524   1.396       .  A
C1519      H1526   1.084       .  S
C1520      C1521   1.405       .  A
C1521      C1522   1.388       .  A
C1521     Br1528   1.921       .  S
C1522      C1523   1.404       .  A
C1522      H1527   1.083       .  S
C1523      C1524   1.421       .  A
C1524     Br1525   1.925       .  S
C1529      C1530   1.411       .  A
C1529      C1534   1.399       .  A
C1529      H1536   1.084       .  S
C1530      C1531   1.410       .  A
C1531      C1532   1.388       .  A
C1531     Br1538   1.921       .  S
C1532      C1533   1.400       .  A
C1532      H1537   1.084       .  S
C1533      C1534   1.400       .  A
C1534     Br1535   1.915       .  S
C1539      C1540   1.400       .  A
C1539      C1544   1.390       .  A
C1539      H1546   1.083       .  S
C1540      C1541   1.402       .  A
C1541      C1542   1.402       .  A
C1541     Br1548   1.915       .  S
C1542      C1543   1.410       .  A
C1542      H1547   1.084       .  S
C1543      C1544   1.409       .  A
C1544     Br1545   1.918       .  S
C1549      C1550   1.390       .  A
C1549      C1554   1.388       .  A
C1549      H1556   1.084       .  S
C1550      C1551   1.404       .  A
C1551      C1552   1.392       .  A
C1551     Br1558   1.921       .  S
C1552      C1553   1.407       .  A
C1552      H1557   1.083       .  S
C1553      C1554   1.425       .  A
C1554     Br1555   1.927       .  S
C1559      C1560   1.403       .  A
C1559      C1564   1.398       .  A
C1559      H1566   1.082       .  S
C1560      C1561   1.406       .  A
C1561      C1562   1.405       .  A
C1561     Br1568   1.916       .  S
C1562      C1563   1.408       .  A
C1562      H1567   1.083       .  S
C1563      C1564   1.410       .  A
C1564     Br1565   1.918       .  S
C1569      C1570   1.399       .  A
C1569      C1574   1.399       .  A
C1569      H1576   1.084       .  S
C1570      C1571   1.405       .  A
C1571      C1572   1.394       .  A
C1571     Br1578   1.920       .  S
C1572      C1573   1.403       .  A
C1572      H1577   1.083       .  S
C1573      C1574   1.411       .  A
C1574     Br1575   1.918       .  S
C1579      C1580   1.405       .  A
C1579      C1584   1.379       .  A
C1579      H1586   1.083       .  S
C1580      C1581   1.416       .  A
C1581      C1582   1.402       .  A
C1581     Br1588   1.919       .  S
C1582      C1583   1.405       .  A
C1582      H1587   1.084       .  S
C1583      C1584   1.410       .  A
C1584     Br1585   1.925       .  S
C1589      C1590   1.412       .  A
C1589      C1594   1.412       .  A
C1589      H1596   1.083       .  S
C1590      C1591   1.427       .  A
C1591      C1592   1.415       .  A
C1591     Br1598   1.921       .  S
C1592      C1593   1.408       .  A
C1592      H1597   1.083       .  S
C1593      C1594   1.415       .  A
C1594     Br1595   1.913       .  S
C1599      C1600   1.412       .  A
C1599      C1604   1.422       .  A
C1599      H1606   1.083       .  S
C1600      C1601   1.419       .  A
C1601      C1602   1.420       .  A
C1601     Br1608   1.917       .  S
C1602      C1603   1.411       .  A
C1602      H1607   1.083       .  S
C1603      C1604   1.417       .  A
C1604     Br1605   1.916       .  S
C1609      C1610   1.401       .  A
C1609      C1614   1.413       .  A
C1609      H1616   1.084       .  S
C1610      C1611   1.416       .  A
C1611      C1612   1.418       .  A
C1611     Br1618   1.916       .  S
C1612      C1613   1.414       .  A
C1612      H1617   1.083       .  S
C1613      C1614   1.425       .  A
C1614     Br1615   1.908       .  S
C1619      C1620   1.408       .  A
C1619      C1624   1.415       .  A
C1619      H1626   1.083       .  S
C1620      C1621   1.415       .  A
C1621      C1622   1.422       .  A
C1621     Br1628   1.916       .  S
C1622      C1623   1.415       .  A
C1622      H1627   1.083       .  S
C1623      C1624   1.421       .  A
C1624     Br1625   1.917       .  S
C1629      C1630   1.407       .  A
C1629      C1634   1.418       .  A
C1629      H1636   1.083       .  S
C1630      C1631   1.416       .  A
C1631      C1632   1.421       .  A
C1631     Br1638   1.916       .  S
C1632      C1633   1.413       .  A
C1632      H1637   1.083       .  S
C1633      C1634   1.424       .  A
C1634     Br1635   1.917       .  S
C1639      C1640   1.416       .  A
C1639      C1644   1.411       .  A
C1639      H1646   1.083       .  S
C1640      C1641   1.424       .  A
C1641      C1642   1.421       .  A
C1641     Br1648   1.919       .  S
C1642      C1643   1.414       .  A
C1642      H1647   1.083       .  S
C1643      C1644   1.415       .  A
C1644     Br1645   1.918       .  S
