geometry optimzed in LAMMPS
_audit_creation_date              2020-11-30 
_audit_creation_method            'lammps2cif' 
_symmetry_space_group_name_H-M    'P1' 
_symmetry_Int_Tables_number       1 
_symmetry_cell_setting            triclinic 
loop_ 
_symmetry_equiv_pos_as_xyz 
  x,y,z 
_cell_length_a                    29.82755623 
_cell_length_b                    30.024554195431875 
_cell_length_c                    24.580591739899614 
_cell_angle_alpha                 91.19231840208617 
_cell_angle_beta                  91.09559546171448 
_cell_angle_gamma                 92.00152161142093 
loop_ 
_atom_site_label 
_atom_site_type_symbol 
_atom_site_fract_x 
_atom_site_fract_y 
_atom_site_fract_z 
_atom_site_charge 
C1          C  0.24820290  0.13363226  0.34673368    -0.02800
C2          C  0.10221444  0.27839544  0.35071185    -0.02800
C3          C  0.39309071  0.29327054  0.35918495    -0.02800
C4          C  0.24075295  0.43518031  0.34037201    -0.02800
C5          C  0.26223380  0.14086415  0.09005432    -0.02800
C6          C  0.11126737  0.28325410  0.09878545    -0.02800
C7          C  0.40544818  0.29810898  0.10923784    -0.02800
C8          C  0.25410548  0.44087619  0.09674314    -0.02800
O9          O  0.46013083  0.32822620  0.03374362    -0.72100
O10         O  0.05470680  0.31515742  0.42428729    -0.72300
O11         O  0.46235555  0.32548511  0.41643247    -0.72200
O12         O  0.05362031  0.32092117  0.03680278    -0.72200
O13         O  0.05187232  0.25019218  0.02786734    -0.72100
O14         O  0.44281446  0.25866180  0.43326870    -0.72200
O15         O  0.03551963  0.24710007  0.41131602    -0.72100
O16         O  0.46110593  0.25895479  0.04491285    -0.72300
V17         V  0.50675905  0.32142032  0.47776205     1.35200
V18         V  0.49795658  0.25432067  0.47857737     1.35200
C19         C  0.44574345  0.29580237  0.06243264     0.77100
C20         C  0.06074888  0.27992356  0.39557008     0.77200
C21         C  0.43407625  0.29320259  0.40580759     0.77100
C22         C  0.07030598  0.28438658  0.05240257     0.77000
O23         O  0.27736493  0.98086931  0.42005039    -0.72100
O24         O  0.28980022  0.09009291  0.01163705    -0.72300
O25         O  0.28606412  0.99974535  0.03236172    -0.72200
O26         O  0.27991897  0.06843964  0.39814056    -0.72200
O27         O  0.21409005  0.08484162  0.42113812    -0.72100
O28         O  0.21746548  0.98425287  0.02001674    -0.72200
O29         O  0.22421566  0.07375555  0.03738891    -0.72100
O30         O  0.20908327  0.99503874  0.40470952    -0.72300
V31         V  0.28231927  0.03501111  0.46598564     1.35200
V32         V  0.21559845  0.03416669  0.47060630     1.35200
C33         C  0.24283785  0.47294924  0.38959449     0.77100
C34         C  0.25876508  0.09956020  0.04477785     0.77200
C35         C  0.25254670  0.47697354  0.04809496     0.77100
C36         C  0.24685534  0.09268482  0.38897452     0.77000
C37         C  0.38409256  0.38824511  0.07825549    -0.02200
C38         C  0.37517599  0.34493340  0.10420773     0.07500
C39         C  0.33651611  0.35005176  0.13665821    -0.02300
C40         C  0.31591716  0.39075671  0.14717199    -0.02300
C41         C  0.30578105  0.41804489  0.10289924     0.07600
C42         C  0.34840683  0.42173500  0.07271695    -0.02500
Br43       Br  0.36971499  0.47637096  0.03941764    -0.01000
Br44       Br  0.44503665  0.41193810  0.06354942    -0.01100
Br45       Br  0.34912494  0.41872478  0.20726761    -0.01100
Br46       Br  0.29075702  0.31045159  0.13204692    -0.01000
C47         C  0.18366141  0.32702545  0.06012536    -0.02200
C48         C  0.14336119  0.32909360  0.09024237     0.07500
C49         C  0.13343571  0.37504294  0.10020283    -0.02300
C50         C  0.16484045  0.41060717  0.08690743    -0.02300
C51         C  0.21291867  0.40353253  0.08376840     0.07600
C52         C  0.22001910  0.36046585  0.06279948    -0.02500
Br53       Br  0.27040258  0.35693309  0.01442584    -0.01000
Br54       Br  0.17054788  0.30144778  0.99208198    -0.01100
Br55       Br  0.13468196  0.45715648  0.04686323    -0.01100
Br56       Br  0.07603638  0.39548651  0.12157519    -0.01000
C57         C  0.18554409  0.24268504  0.12748663    -0.02200
C58         C  0.14511226  0.24070378  0.09548055     0.07500
C59         C  0.13613596  0.19587339  0.07553255    -0.02300
C60         C  0.17192225  0.16543792  0.06452957    -0.02300
C61         C  0.21662540  0.17137749  0.09061662     0.07600
C62         C  0.21799433  0.20863114  0.12725887    -0.02500
Br63       Br  0.26998703  0.21772764  0.17164977    -0.01000
Br64       Br  0.19439392  0.28970846  0.18005837    -0.01100
Br65       Br  0.15072533  0.11644236  0.01601310    -0.01100
Br66       Br  0.07555728  0.16997064  0.06870295    -0.01000
C67         C  0.30398793  0.22155044  0.05434976    -0.02200
C68         C  0.30659233  0.17621401  0.07417076     0.07500
C69         C  0.35438562  0.16868973  0.07831896    -0.02300
C70         C  0.38751762  0.20483697  0.09268452    -0.02300
C71         C  0.37592318  0.25168355  0.09241464     0.07600
C72         C  0.34027791  0.25373380  0.05634209    -0.02500
Br73       Br  0.35365293  0.28686670  0.99444827    -0.01000
Br74       Br  0.25458458  0.25210646  0.03091132    -0.01100
Br75       Br  0.44719742  0.18636927  0.11166374    -0.01100
Br76       Br  0.37928879  0.11530538  0.04721131    -0.01000
C77         C  0.26797250  0.48117856  0.25174799    -0.02200
C78         C  0.23419695  0.45403985  0.27769953     0.07500
C79         C  0.19894960  0.44020126  0.23770551    -0.02300
C80         C  0.20023568  0.45298416  0.18320292    -0.02300
C81         C  0.24110230  0.46217015  0.15638515     0.07600
C82         C  0.27216696  0.48315052  0.19292925    -0.02500
Br83       Br  0.31992062  0.01336519  0.15996484    -0.01000
Br84       Br  0.30921024  0.01497203  0.29431642    -0.01100
Br85       Br  0.14917208  0.48806472  0.16968049    -0.01100
Br86       Br  0.15386539  0.39202289  0.23449777    -0.01000
C87         C  0.42403650  0.33739976  0.27117752    -0.02200
C88         C  0.41746638  0.29706048  0.30068065     0.07500
C89         C  0.42708585  0.26013109  0.26876573    -0.02300
C90         C  0.41778396  0.25860514  0.21190129    -0.02300
C91         C  0.41826743  0.29737427  0.17693304     0.07600
C92         C  0.42731624  0.33737107  0.21197558    -0.02500
Br93       Br  0.45177309  0.39301370  0.18643699    -0.01000
Br94       Br  0.43473799  0.39284627  0.31264083    -0.01100
Br95       Br  0.37894764  0.20823220  0.21060029    -0.01100
Br96       Br  0.48231027  0.23670120  0.28802053    -0.01000
C97         C  0.32633574  0.33662188  0.31061815    -0.02200
C98         C  0.35755811  0.33464128  0.35580802     0.07500
C99         C  0.35415068  0.37253297  0.39120357    -0.02300
C100        C  0.32546524  0.40928757  0.37971178    -0.02300
C101        C  0.28684771  0.40496153  0.34265873     0.07600
C102        C  0.29212864  0.36862720  0.30584838    -0.02500
Br103      Br  0.25763236  0.36457517  0.24098911    -0.01000
Br104      Br  0.32592359  0.29288399  0.25389906    -0.01100
Br105      Br  0.36150876  0.46438607  0.38537230    -0.01100
Br106      Br  0.39491789  0.38126800  0.44960131    -0.01000
C107        C  0.06963812  0.30863050  0.25158615    -0.02200
C108        C  0.09252938  0.27574017  0.28310947     0.07500
C109        C  0.10882258  0.24206614  0.24428632    -0.02300
C110        C  0.09501680  0.23941884  0.18989083    -0.02300
C111        C  0.09304766  0.27884667  0.16080082     0.07600
C112        C  0.06998625  0.30940230  0.19217005    -0.01900
Br113      Br  0.01564877  0.31433866  0.15554917    -0.01000
Br114      Br  0.03177085  0.34903016  0.28424565    -0.01100
Br115      Br  0.04390432  0.19944671  0.18492126    -0.01100
Br116      Br  0.15247402  0.19730689  0.23743101    -0.01000
C117        C  0.11692109  0.37480869  0.35932468    -0.02200
C118        C  0.13065010  0.32754012  0.36370027     0.07500
C119        C  0.17729755  0.32782535  0.37135527    -0.02300
C120        C  0.20296604  0.36735261  0.38640739    -0.02300
C121        C  0.19800900  0.40278266  0.35228323     0.07600
C122        C  0.15025125  0.41086694  0.34803535    -0.02500
Br123      Br  0.13024331  0.47008799  0.33362405    -0.01000
Br124      Br  0.06421088  0.40014533  0.39204104    -0.01100
Br125      Br  0.19027779  0.39777991  0.45337244    -0.01100
Br126      Br  0.19610246  0.30288106  0.30890579    -0.01000
C127        C  0.22164331  0.10479662  0.24345021    -0.02200
C128        C  0.25611630  0.11999600  0.28057345     0.07500
C129        C  0.29822126  0.12270556  0.25194201    -0.02300
C130        C  0.30182978  0.12172367  0.19258444    -0.02300
C131        C  0.26361713  0.12133714  0.15487508     0.07600
C132        C  0.22351943  0.10860823  0.18445308    -0.02500
Br133      Br  0.16859387  0.09199678  0.14701876    -0.01000
Br134      Br  0.18324627  0.05927235  0.27004083    -0.01100
Br135      Br  0.36080037  0.10833940  0.16855531    -0.01100
Br136      Br  0.35410046  0.11425228  0.29041515    -0.01000
C137        C  0.16330083  0.22689120  0.40212514    -0.02200
C138        C  0.13146987  0.23200425  0.36036021     0.07500
C139        C  0.11952153  0.18603034  0.34310260    -0.02300
C140        C  0.15263206  0.15035571  0.34474144    -0.02300
C141        C  0.19978419  0.16110088  0.35723905     0.07600
C142        C  0.19975054  0.19637311  0.39647007    -0.02500
Br143      Br  0.22851245  0.17502410  0.45801943    -0.01000
Br144      Br  0.12374927  0.21081678  0.45821811    -0.01100
Br145      Br  0.12668382  0.09404416  0.36717257    -0.01100
Br146      Br  0.05819057  0.16869463  0.32781875    -0.01000
C147        C  0.33567619  0.16667259  0.38702284    -0.02200
C148        C  0.29079139  0.16979292  0.36236249     0.07500
C149        C  0.28609557  0.21288053  0.34487964    -0.02300
C150        C  0.31247162  0.24943927  0.36310887    -0.02300
C151        C  0.36016170  0.24744271  0.36637494     0.07600
C152        C  0.37107497  0.20141013  0.37837334    -0.02500
Br153      Br  0.43135713  0.17942728  0.37843993    -0.01000
Br154      Br  0.35640837  0.11421898  0.42115920    -0.01100
Br155      Br  0.27623826  0.28950397  0.40233419    -0.01100
Br156      Br  0.24853493  0.22223948  0.28829153    -0.01000
C157        C  0.24842810  0.13387747  0.84721174    -0.02800
C158        C  0.10229107  0.27857309  0.85110298    -0.02800
C159        C  0.39350936  0.29307363  0.85929145    -0.02800
C160        C  0.24114442  0.43526689  0.84000173    -0.02800
C161        C  0.25999442  0.14015096  0.59000278    -0.02800
C162        C  0.10989676  0.28253450  0.59868408    -0.02800
C163        C  0.40458705  0.29666243  0.60851817    -0.02800
C164        C  0.25375843  0.43981799  0.59625981    -0.02800
O165        O  0.45890498  0.32750249  0.53294268    -0.72100
O166        O  0.05450139  0.31542842  0.92385723    -0.72300
O167        O  0.46222274  0.32567201  0.91730726    -0.72200
O168        O  0.05225573  0.32059355  0.53737667    -0.72200
O169        O  0.05157503  0.25008296  0.52651035    -0.72100
O170        O  0.44354750  0.25833345  0.93317156    -0.72200
O171        O  0.03628559  0.24700492  0.91235464    -0.72100
O172        O  0.46099442  0.25828940  0.54461583    -0.72300
V173        V  0.50730816  0.32166820  0.97797530     1.35200
V174        V  0.49844739  0.25446461  0.97924247     1.35200
C175        C  0.44498441  0.29492635  0.56182042     0.77100
C176        C  0.06088464  0.28001908  0.89582034     0.77200
C177        C  0.43442483  0.29306353  0.90612238     0.77100
C178        C  0.06922235  0.28403405  0.55223831     0.77000
O179        O  0.27816403  0.98155583  0.91872394    -0.72100
O180        O  0.28762565  0.09060053  0.51099013    -0.72300
O181        O  0.28458767  0.00151652  0.53431890    -0.72200
O182        O  0.28110733  0.06943620  0.89862966    -0.72200
O183        O  0.21497292  0.08508956  0.92133282    -0.72100
O184        O  0.21710196  0.98282771  0.51862504    -0.72200
O185        O  0.22258707  0.07271989  0.53751222    -0.72100
O186        O  0.20950364  0.99505810  0.90534847    -0.72300
V187        V  0.28354991  0.03493794  0.96556498     1.35200
V188        V  0.21664098  0.03477076  0.97099280     1.35200
C189        C  0.24314311  0.47321547  0.88913624     0.77100
C190        C  0.25672951  0.09915031  0.54464157     0.77200
C191        C  0.25183424  0.47648476  0.54816703     0.77100
C192        C  0.24765106  0.09315769  0.88935234     0.77000
C193        C  0.38296530  0.38633730  0.57691320    -0.02200
C194        C  0.37435912  0.34330186  0.60346700     0.07500
C195        C  0.33567310  0.34835417  0.63575716    -0.02300
C196        C  0.31505306  0.38896417  0.64614360    -0.02300
C197        C  0.30500733  0.41635100  0.60177985     0.07600
C198        C  0.34686241  0.41900032  0.57022629    -0.02500
Br199      Br  0.36499981  0.46954829  0.52751064    -0.01000
Br200      Br  0.44349800  0.41145191  0.56303209    -0.01100
Br201      Br  0.34889310  0.41561675  0.70653580    -0.01100
Br202      Br  0.29037583  0.30829968  0.63272136    -0.01000
C203        C  0.18221727  0.32624973  0.55991102    -0.02200
C204        C  0.14206621  0.32837357  0.59023500     0.07500
C205        C  0.13258742  0.37431309  0.60107671    -0.02300
C206        C  0.16417896  0.40981933  0.58794250    -0.02300
C207        C  0.21220472  0.40255342  0.58398582     0.07600
C208        C  0.21889921  0.35932198  0.56288763    -0.02500
Br209      Br  0.26928812  0.35476727  0.51468518    -0.01000
Br210      Br  0.16877148  0.30087613  0.49180107    -0.01100
Br211      Br  0.13409559  0.45642503  0.54818636    -0.01100
Br212      Br  0.07549328  0.39484460  0.62379094    -0.01000
C213        C  0.18366449  0.24200236  0.62686383    -0.02200
C214        C  0.14329166  0.23998011  0.59486198     0.07500
C215        C  0.13404758  0.19522886  0.57446726    -0.02300
C216        C  0.16981879  0.16467992  0.56366790    -0.02300
C217        C  0.21446638  0.17066432  0.58997816     0.07600
C218        C  0.21576743  0.20782244  0.62665576    -0.02500
Br219      Br  0.26692951  0.21631110  0.67201249    -0.01000
Br220      Br  0.19328523  0.28959849  0.67915843    -0.01100
Br221      Br  0.14847502  0.11471636  0.51658918    -0.01100
Br222      Br  0.07315486  0.16966606  0.56586952    -0.01000
C223        C  0.30244395  0.22065106  0.55439514    -0.02200
C224        C  0.30482375  0.17533045  0.57432978     0.07500
C225        C  0.35279491  0.16753994  0.57766284    -0.02300
C226        C  0.38630929  0.20351978  0.59161420    -0.02300
C227        C  0.37495451  0.25036489  0.59137912     0.07600
C228        C  0.33906213  0.25256283  0.55568542    -0.02500
Br229      Br  0.35276883  0.28489460  0.49323705    -0.01000
Br230      Br  0.25303721  0.25099832  0.53043666    -0.01100
Br231      Br  0.44599641  0.18510606  0.61106329    -0.01100
Br232      Br  0.37762582  0.11386172  0.54695915    -0.01000
C233        C  0.26923923  0.48043432  0.75116922    -0.02200
C234        C  0.23494159  0.45396681  0.77718394     0.07500
C235        C  0.19966438  0.44047105  0.73713119    -0.02300
C236        C  0.20127293  0.45328302  0.68270942    -0.02300
C237        C  0.24218488  0.46131239  0.65600398     0.07600
C238        C  0.27386521  0.48183427  0.69230549    -0.02500
Br239      Br  0.32385393  0.00962612  0.65935285    -0.01000
Br240      Br  0.31064645  0.01429910  0.79412334    -0.01100
Br241      Br  0.15242750  0.49069367  0.66880387    -0.01100
Br242      Br  0.15433816  0.39259343  0.73357489    -0.01000
C243        C  0.42466074  0.33590174  0.77059294    -0.02200
C244        C  0.41770548  0.29582111  0.80042132     0.07500
C245        C  0.42626554  0.25852171  0.76818419    -0.02300
C246        C  0.41543012  0.25709690  0.71156180    -0.02300
C247        C  0.41732103  0.29574862  0.67632245     0.07600
C248        C  0.42729971  0.33564048  0.71128190    -0.02500
Br249      Br  0.45147890  0.39107259  0.68516458    -0.01000
Br250      Br  0.43547531  0.39144620  0.81172390    -0.01100
Br251      Br  0.37574848  0.20723898  0.70896848    -0.01100
Br252      Br  0.48398622  0.23834995  0.78233089    -0.01000
C253        C  0.32676774  0.33657525  0.81093216    -0.02200
C254        C  0.35821411  0.33472783  0.85592155     0.07500
C255        C  0.35487740  0.37286608  0.89119153    -0.02300
C256        C  0.32608731  0.40951863  0.87956539    -0.02300
C257        C  0.28731832  0.40507440  0.84257698     0.07600
C258        C  0.29244728  0.36848711  0.80608430    -0.02500
Br259      Br  0.25731054  0.36376372  0.74151960    -0.01000
Br260      Br  0.32599426  0.29268016  0.75465737    -0.01100
Br261      Br  0.36212074  0.46468278  0.88630331    -0.01100
Br262      Br  0.39482726  0.38217398  0.95068625    -0.01000
C263        C  0.06961590  0.30859739  0.75154378    -0.02200
C264        C  0.09246364  0.27590111  0.78353435     0.07500
C265        C  0.10851086  0.24184075  0.74531079    -0.02300
C266        C  0.09506846  0.23856762  0.69076533    -0.02300
C267        C  0.09193562  0.27766849  0.66087514     0.07600
C268        C  0.06941984  0.30848316  0.69217104    -0.01900
Br269      Br  0.01494650  0.31203799  0.65569952    -0.01000
Br270      Br  0.03361078  0.35131385  0.78310689    -0.01100
Br271      Br  0.04699341  0.19496191  0.68480763    -0.01100
Br272      Br  0.15457229  0.19968298  0.74045167    -0.01000
C273        C  0.11726586  0.37487413  0.85921274    -0.02200
C274        C  0.13087220  0.32763067  0.86389879     0.07500
C275        C  0.17753744  0.32783851  0.87116806    -0.02300
C276        C  0.20325828  0.36741909  0.88605870    -0.02300
C277        C  0.19837113  0.40276108  0.85175663     0.07600
C278        C  0.15060121  0.41076281  0.84731223    -0.02500
Br279      Br  0.13054193  0.46982167  0.83234480    -0.01000
Br280      Br  0.06520070  0.40053060  0.89305289    -0.01100
Br281      Br  0.19026072  0.39814744  0.95284831    -0.01100
Br282      Br  0.19609957  0.30197826  0.80896599    -0.01000
C283        C  0.21981782  0.10561966  0.74467450    -0.02200
C284        C  0.25519172  0.11993522  0.78100781     0.07500
C285        C  0.29673372  0.12180207  0.75144639    -0.02300
C286        C  0.29934179  0.12022992  0.69204872    -0.02300
C287        C  0.26086714  0.12049515  0.65490182     0.07600
C288        C  0.22067794  0.10948826  0.68562480    -0.02500
Br289      Br  0.16341448  0.09672106  0.65106305    -0.01000
Br290      Br  0.18077875  0.06105271  0.77217554    -0.01100
Br291      Br  0.35755083  0.10676171  0.66709532    -0.01100
Br292      Br  0.35314391  0.11391953  0.78883287    -0.01000
C293        C  0.16357189  0.22735546  0.90267422    -0.02200
C294        C  0.13139291  0.23215397  0.86119536     0.07500
C295        C  0.11922534  0.18610866  0.84453020    -0.02300
C296        C  0.15239208  0.15042602  0.84634847    -0.02300
C297        C  0.19982077  0.16133056  0.85797878     0.07600
C298        C  0.19997308  0.19678828  0.89692308    -0.02500
Br299      Br  0.23016561  0.17637245  0.95808251    -0.01000
Br300      Br  0.12455475  0.21186695  0.95950925    -0.01100
Br301      Br  0.12630952  0.09490830  0.87145893    -0.01100
Br302      Br  0.05756844  0.16912930  0.83024009    -0.01000
C303        C  0.33710103  0.16632819  0.88586138    -0.02200
C304        C  0.29154676  0.16968673  0.86290720     0.07500
C305        C  0.28602046  0.21328603  0.84823855    -0.02300
C306        C  0.31283031  0.24960189  0.86607079    -0.02300
C307        C  0.36055477  0.24757924  0.86702612     0.07600
C308        C  0.37198250  0.20143417  0.87666317    -0.02500
Br309      Br  0.43240192  0.18053636  0.87265566    -0.01000
Br310      Br  0.35919998  0.11404762  0.91959125    -0.01100
Br311      Br  0.27688678  0.29103949  0.90342400    -0.01100
Br312      Br  0.25094103  0.22257175  0.78996593    -0.01000
C313        C  0.24846138  0.63355020  0.34705306    -0.02800
C314        C  0.10223310  0.77816941  0.35125982    -0.02800
C315        C  0.39350230  0.79313396  0.35976660    -0.02800
C316        C  0.24074418  0.93490263  0.34050203    -0.02800
C317        C  0.26210390  0.64068157  0.09013531    -0.02800
C318        C  0.11110525  0.78262367  0.09916133    -0.02800
C319        C  0.40531291  0.79804215  0.10935623    -0.02800
C320        C  0.25395653  0.94062308  0.09682519    -0.02800
O321        O  0.46017322  0.82811156  0.03393269    -0.72100
O322        O  0.05505946  0.81512222  0.42501464    -0.72300
O323        O  0.46279803  0.82547650  0.41683679    -0.72200
O324        O  0.05365333  0.82052781  0.03712584    -0.72200
O325        O  0.05173972  0.74981015  0.02811379    -0.72100
O326        O  0.44299158  0.75884924  0.43423597    -0.72200
O327        O  0.03558140  0.74712614  0.41204531    -0.72100
O328        O  0.46094439  0.75882893  0.04497133    -0.72300
V329        V  0.50704951  0.82155480  0.47834544     1.35200
V330        V  0.49819217  0.75449471  0.47938557     1.35200
C331        C  0.44564687  0.79570353  0.06254000     0.77100
C332        C  0.06089731  0.77985542  0.39624990     0.77200
C333        C  0.43442434  0.79323335  0.40643476     0.77100
C334        C  0.07021943  0.78393361  0.05271728     0.77000
O335        O  0.27748691  0.48083918  0.42017095    -0.72100
O336        O  0.28969043  0.59030859  0.01133231    -0.72300
O337        O  0.28603743  0.50032478  0.03278085    -0.72200
O338        O  0.28005069  0.56831176  0.39830729    -0.72200
O339        O  0.21435646  0.58490334  0.42149616    -0.72100
O340        O  0.21775272  0.48396875  0.01944939    -0.72200
O341        O  0.22434799  0.57344732  0.03754557    -0.72100
O342        O  0.20923700  0.49518073  0.40484389    -0.72300
V343        V  0.28248052  0.53496495  0.46615749     1.35200
V344        V  0.21578615  0.53419172  0.47081727     1.35200
C345        C  0.24272069  0.97282572  0.38953944     0.77100
C346        C  0.25875307  0.59948649  0.04474865     0.77200
C347        C  0.25241037  0.97679902  0.04815197     0.77100
C348        C  0.24705618  0.59262428  0.38922421     0.77000
C349        C  0.38403296  0.88824911  0.07858307    -0.02200
C350        C  0.37504660  0.84487451  0.10435845     0.07500
C351        C  0.33637738  0.84997945  0.13681641    -0.02300
C352        C  0.31574026  0.89065877  0.14738706    -0.02300
C353        C  0.30569138  0.91798719  0.10316965     0.07600
C354        C  0.34841234  0.92184327  0.07321745    -0.02500
Br355      Br  0.37007881  0.97698878  0.04139072    -0.01000
Br356      Br  0.44501522  0.91177817  0.06379856    -0.01100
Br357      Br  0.34906039  0.91874085  0.20737050    -0.01100
Br358      Br  0.29101129  0.80987100  0.13342324    -0.01000
C359        C  0.18366423  0.82644418  0.06062378    -0.02200
C360        C  0.14331389  0.82846410  0.09070188     0.07500
C361        C  0.13341698  0.87439447  0.10063995    -0.02300
C362        C  0.16474737  0.90996532  0.08706138    -0.02300
C363        C  0.21286038  0.90306974  0.08390522     0.07600
C364        C  0.22008759  0.85986898  0.06340816    -0.02500
Br365      Br  0.27077598  0.85612121  0.01546750    -0.01000
Br366      Br  0.17018667  0.80171903  0.99225839    -0.01100
Br367      Br  0.13442834  0.95592974  0.04638679    -0.01100
Br368      Br  0.07607766  0.89469311  0.12241168    -0.01000
C369        C  0.18518463  0.74209344  0.12791892    -0.02200
C370        C  0.14487059  0.74013039  0.09572049     0.07500
C371        C  0.13598791  0.69537651  0.07541403    -0.02300
C372        C  0.17191667  0.66515088  0.06425648    -0.02300
C373        C  0.21647134  0.67106162  0.09067103     0.07600
C374        C  0.21761069  0.70807919  0.12765909    -0.02500
Br375      Br  0.26933002  0.71712315  0.17239382    -0.01000
Br376      Br  0.19419062  0.78926557  0.18040854    -0.01100
Br377      Br  0.15107522  0.61622623  0.01549836    -0.01100
Br378      Br  0.07543529  0.66936415  0.06777337    -0.01000
C379        C  0.30366647  0.72161274  0.05498417    -0.02200
C380        C  0.30642999  0.67619973  0.07445997     0.07500
C381        C  0.35429994  0.66873525  0.07810273    -0.02300
C382        C  0.38747804  0.70483815  0.09248215    -0.02300
C383        C  0.37580054  0.75165594  0.09247834     0.07600
C384        C  0.33996052  0.75378680  0.05674188    -0.02500
Br385      Br  0.35362924  0.78608009  0.99434578    -0.01000
Br386      Br  0.25408946  0.75205779  0.03180778    -0.01100
Br387      Br  0.44718471  0.68636279  0.11176009    -0.01100
Br388      Br  0.37923010  0.61558116  0.04653773    -0.01000
C389        C  0.26772063  0.98083355  0.25178338    -0.02200
C390        C  0.23410764  0.95355531  0.27773910     0.07500
C391        C  0.19889545  0.93954322  0.23775402    -0.02300
C392        C  0.20003617  0.95243784  0.18327929    -0.02300
C393        C  0.24083853  0.96185631  0.15643907     0.07600
C394        C  0.27182532  0.98294219  0.19298825    -0.02500
Br395      Br  0.32061916  0.51298908  0.15981428    -0.01000
Br396      Br  0.30958679  0.51527262  0.29426684    -0.01100
Br397      Br  0.14865980  0.98710872  0.16955715    -0.01100
Br398      Br  0.15408602  0.89110152  0.23457096    -0.01000
C399        C  0.42432980  0.83706408  0.27149507    -0.02200
C400        C  0.41789534  0.79672107  0.30110502     0.07500
C401        C  0.42682164  0.75969836  0.26879684    -0.02300
C402        C  0.41724044  0.75840525  0.21198668    -0.02300
C403        C  0.41803075  0.79720042  0.17710174     0.07600
C404        C  0.42736915  0.83708029  0.21223667    -0.02500
Br405      Br  0.45192812  0.89261999  0.18662003    -0.01000
Br406      Br  0.43506786  0.89259218  0.31282635    -0.01100
Br407      Br  0.37838315  0.70805421  0.21013597    -0.01100
Br408      Br  0.48154520  0.73462996  0.28690996    -0.01000
C409        C  0.32666820  0.83644071  0.31126151    -0.02200
C410        C  0.35797211  0.83458681  0.35635896     0.07500
C411        C  0.35465028  0.87271844  0.39149602    -0.02300
C412        C  0.32573152  0.90934579  0.37993261    -0.02300
C413        C  0.28697661  0.90477747  0.34302773     0.07600
C414        C  0.29236420  0.86835350  0.30639762    -0.02500
Br415      Br  0.25784066  0.86405378  0.24160543    -0.01000
Br416      Br  0.32619748  0.79253427  0.25489136    -0.01100
Br417      Br  0.36141592  0.96470945  0.38566290    -0.01100
Br418      Br  0.39590821  0.88208143  0.44940535    -0.01000
C419        C  0.06935123  0.80780803  0.25191936    -0.02200
C420        C  0.09245374  0.77522866  0.28366174     0.07500
C421        C  0.10889806  0.74149696  0.24507575    -0.02300
C422        C  0.09532807  0.73859366  0.19057348    -0.02300
C423        C  0.09282144  0.77792142  0.16120172     0.07600
C424        C  0.06965573  0.80838478  0.19251402    -0.01900
Br425      Br  0.01540402  0.81329210  0.15575184    -0.01000
Br426      Br  0.03163416  0.84837904  0.28428923    -0.01100
Br427      Br  0.04538098  0.69711242  0.18524611    -0.01100
Br428      Br  0.15334935  0.69753086  0.23903015    -0.01000
C429        C  0.11686095  0.87458075  0.35926357    -0.02200
C430        C  0.13062183  0.82735605  0.36395439     0.07500
C431        C  0.17724528  0.82768261  0.37178917    -0.02300
C432        C  0.20282530  0.86728162  0.38684091    -0.02300
C433        C  0.19798112  0.90255207  0.35246236     0.07600
C434        C  0.15021429  0.91060646  0.34791675    -0.02500
Br435      Br  0.13018952  0.96973874  0.33303600    -0.01000
Br436      Br  0.06400442  0.89993782  0.39160870    -0.01100
Br437      Br  0.18971335  0.89800076  0.45356336    -0.01100
Br438      Br  0.19599367  0.80257763  0.30934939    -0.01000
C439        C  0.22158089  0.60489413  0.24378337    -0.02200
C440        C  0.25623222  0.61995632  0.28077175     0.07500
C441        C  0.29823192  0.62262208  0.25181253    -0.02300
C442        C  0.30162650  0.62136124  0.19242626    -0.02300
C443        C  0.26336386  0.62101279  0.15489609     0.07600
C444        C  0.22324552  0.60865874  0.18474808    -0.02500
Br445      Br  0.16774848  0.59305034  0.14787696    -0.01000
Br446      Br  0.18249822  0.56010637  0.27074364    -0.01100
Br447      Br  0.36046081  0.60814841  0.16785807    -0.01100
Br448      Br  0.35445463  0.61487709  0.28968970    -0.01000
C449        C  0.16363363  0.72693879  0.40261699    -0.02200
C450        C  0.13153830  0.73183088  0.36109196     0.07500
C451        C  0.11950510  0.68578521  0.34422734    -0.02300
C452        C  0.15268257  0.65013871  0.34583906    -0.02300
C453        C  0.19997599  0.66102921  0.35771157     0.07600
C454        C  0.20003872  0.69636492  0.39688022    -0.02500
Br455      Br  0.22892560  0.67502544  0.45837124    -0.01000
Br456      Br  0.12430742  0.71112887  0.45901053    -0.01100
Br457      Br  0.12684609  0.59400104  0.36919856    -0.01100
Br458      Br  0.05795236  0.66845066  0.33053323    -0.01000
C459        C  0.33627719  0.66612415  0.38720515    -0.02200
C460        C  0.29124470  0.66950093  0.36294355     0.07500
C461        C  0.28642196  0.71278818  0.34635837    -0.02300
C462        C  0.31290665  0.74922778  0.36461977    -0.02300
C463        C  0.36062016  0.74724896  0.36731599     0.07600
C464        C  0.37160214  0.70110931  0.37900483    -0.02500
Br465      Br  0.43202810  0.67945059  0.38004668    -0.01000
Br466      Br  0.35729880  0.61297028  0.41987437    -0.01100
Br467      Br  0.27651521  0.78991620  0.40271564    -0.01100
Br468      Br  0.24940395  0.72243880  0.28949611    -0.01000
C469        C  0.24880032  0.63366504  0.84710280    -0.02800
C470        C  0.10263743  0.77830214  0.85158463    -0.02800
C471        C  0.39360803  0.79300328  0.85942669    -0.02800
C472        C  0.24124531  0.93521037  0.84012457    -0.02800
C473        C  0.26023752  0.64036094  0.58996683    -0.02800
C474        C  0.11014121  0.78281154  0.59936228    -0.02800
C475        C  0.40466340  0.79699809  0.60879753    -0.02800
C476        C  0.25368410  0.94009372  0.59640301    -0.02800
O477        O  0.45905342  0.82777712  0.53330518    -0.72100
O478        O  0.05467893  0.81512506  0.92419972    -0.72300
O479        O  0.46234482  0.82560805  0.91749707    -0.72200
O480        O  0.05240765  0.82079844  0.53811113    -0.72200
O481        O  0.05186994  0.75029152  0.52721420    -0.72100
O482        O  0.44360469  0.75827961  0.93327090    -0.72200
O483        O  0.03643652  0.74671716  0.91264413    -0.72100
O484        O  0.46137635  0.75865027  0.54546223    -0.72300
V485        V  0.50740202  0.82146232  0.97822524     1.35200
V486        V  0.49841209  0.75427098  0.97940671     1.35200
C487        C  0.44519217  0.79527756  0.56234526     0.77100
C488        C  0.06113960  0.77970853  0.89622411     0.77200
C489        C  0.43452528  0.79302056  0.90625368     0.77100
C490        C  0.06943322  0.78425307  0.55297415     0.77000
O491        O  0.27806536  0.48132933  0.91902891    -0.72100
O492        O  0.28782889  0.59062344  0.51105524    -0.72300
O493        O  0.28468100  0.50148798  0.53453092    -0.72200
O494        O  0.28118656  0.56910070  0.89842357    -0.72200
O495        O  0.21526380  0.58522087  0.92146806    -0.72100
O496        O  0.21722118  0.48275500  0.51867228    -0.72200
O497        O  0.22284646  0.57272307  0.53775176    -0.72100
O498        O  0.20958612  0.49528895  0.90504767    -0.72300
V499        V  0.28358517  0.53496824  0.96557837     1.35200
V500        V  0.21676319  0.53474258  0.97088262     1.35200
C501        C  0.24315490  0.97322809  0.88915088     0.77100
C502        C  0.25695262  0.59923953  0.54471952     0.77200
C503        C  0.25171831  0.97662774  0.54814302     0.77100
C504        C  0.24789061  0.59303606  0.88929801     0.77000
C505        C  0.38300043  0.88667552  0.57714820    -0.02200
C506        C  0.37440918  0.84363992  0.60372027     0.07500
C507        C  0.33566975  0.84864751  0.63593274    -0.02300
C508        C  0.31499592  0.88922512  0.64630439    -0.02300
C509        C  0.30497453  0.91664576  0.60196081     0.07600
C510        C  0.34690714  0.91937889  0.57051589    -0.02500
Br511      Br  0.36531001  0.97028266  0.52850378    -0.01000
Br512      Br  0.44357821  0.91172455  0.56336729    -0.01100
Br513      Br  0.34874160  0.91579812  0.70679679    -0.01100
Br514      Br  0.29029642  0.80869843  0.63257830    -0.01000
C515        C  0.18237596  0.82648852  0.56045742    -0.02200
C516        C  0.14228194  0.82862521  0.59086387     0.07500
C517        C  0.13265925  0.87457812  0.60138706    -0.02300
C518        C  0.16416589  0.91009723  0.58808931    -0.02300
C519        C  0.21218369  0.90285485  0.58415631     0.07600
C520        C  0.21894960  0.85964955  0.56315934    -0.02500
Br521      Br  0.26912488  0.85533535  0.51462037    -0.01000
Br522      Br  0.16869139  0.80128856  0.49236081    -0.01100
Br523      Br  0.13405167  0.95692839  0.54872165    -0.01100
Br524      Br  0.07554829  0.89505111  0.62404194    -0.01000
C525        C  0.18402169  0.74216257  0.62728554    -0.02200
C526        C  0.14355956  0.74019270  0.59545205     0.07500
C527        C  0.13432215  0.69543395  0.57505353    -0.02300
C528        C  0.17009853  0.66493260  0.56402841    -0.02300
C529        C  0.21478858  0.67091889  0.59012407     0.07600
C530        C  0.21622748  0.70806573  0.62681246    -0.02500
Br531      Br  0.26767619  0.71656837  0.67182808    -0.01000
Br532      Br  0.19354214  0.78944284  0.67981462    -0.01100
Br533      Br  0.14878301  0.61489314  0.51711916    -0.01100
Br534      Br  0.07348501  0.66980073  0.56649319    -0.01000
C535        C  0.30260964  0.72099482  0.55418372    -0.02200
C536        C  0.30499112  0.67563162  0.57411131     0.07500
C537        C  0.35293404  0.66791483  0.57749489    -0.02300
C538        C  0.38640642  0.70385232  0.59163937    -0.02300
C539        C  0.37506244  0.75070634  0.59149217     0.07600
C540        C  0.33922910  0.75295909  0.55569623    -0.02500
Br541      Br  0.35284246  0.78607894  0.49378220    -0.01000
Br542      Br  0.25313979  0.75137081  0.53033369    -0.01100
Br543      Br  0.44603755  0.68522709  0.61104075    -0.01100
Br544      Br  0.37778790  0.61459031  0.54607599    -0.01000
C545        C  0.26915067  0.98047558  0.75133818    -0.02200
C546        C  0.23495659  0.95388460  0.77734978     0.07500
C547        C  0.19968569  0.94027399  0.73738458    -0.02300
C548        C  0.20113521  0.95319932  0.68301087    -0.02300
C549        C  0.24197508  0.96156133  0.65616108     0.07600
C550        C  0.27367191  0.98202913  0.69247598    -0.02500
Br551      Br  0.32401195  0.50951401  0.65917879    -0.01000
Br552      Br  0.31051178  0.51455854  0.79392397    -0.01100
Br553      Br  0.15185903  0.99023607  0.66972568    -0.01100
Br554      Br  0.15439297  0.89232498  0.73411391    -0.01000
C555        C  0.42451961  0.83610960  0.77080930    -0.02200
C556        C  0.41778011  0.79596504  0.80058789     0.07500
C557        C  0.42639714  0.75872082  0.76831343    -0.02300
C558        C  0.41568605  0.75731259  0.71168148    -0.02300
C559        C  0.41734230  0.79602529  0.67655063     0.07600
C560        C  0.42717139  0.83591305  0.71152892    -0.02500
Br561      Br  0.45134623  0.89138639  0.68549131    -0.01000
Br562      Br  0.43514471  0.89169910  0.81191109    -0.01100
Br563      Br  0.37632439  0.70719255  0.70907400    -0.01100
Br564      Br  0.48378121  0.73792374  0.78294772    -0.01000
C565        C  0.32677905  0.83642768  0.81112293    -0.02200
C566        C  0.35819875  0.83456527  0.85615048     0.07500
C567        C  0.35482367  0.87266457  0.89148166    -0.02300
C568        C  0.32614438  0.90939406  0.87980622    -0.02300
C569        C  0.28745060  0.90504217  0.84270116     0.07600
C570        C  0.29253036  0.86840546  0.80625905    -0.02500
Br571      Br  0.25740249  0.86369191  0.74172765    -0.01000
Br572      Br  0.32600464  0.79253789  0.75470714    -0.01100
Br573      Br  0.36230856  0.96448520  0.88665018    -0.01100
Br574      Br  0.39461275  0.88182215  0.95115407    -0.01000
C575        C  0.06980930  0.80849773  0.75249420    -0.02200
C576        C  0.09273454  0.77567585  0.78408130     0.07500
C577        C  0.10864160  0.74171665  0.74558506    -0.02300
C578        C  0.09505209  0.73879023  0.69108675    -0.02300
C579        C  0.09222815  0.77805240  0.66157005     0.07600
C580        C  0.06966062  0.80877654  0.69308981    -0.01900
Br581      Br  0.01515108  0.81254780  0.65676122    -0.01000
Br582      Br  0.03300474  0.85004153  0.78511067    -0.01100
Br583      Br  0.04632936  0.69595375  0.68480120    -0.01100
Br584      Br  0.15402531  0.69883011  0.74011855    -0.01000
C585        C  0.11760542  0.87465362  0.85990749    -0.02200
C586        C  0.13123060  0.82739782  0.86441292     0.07500
C587        C  0.17792731  0.82762256  0.87143526    -0.02300
C588        C  0.20379797  0.86716284  0.88601214    -0.02300
C589        C  0.19860854  0.90260734  0.85197309     0.07600
C590        C  0.15084535  0.91057388  0.84789704    -0.02500
Br591      Br  0.13073593  0.96963756  0.83299618    -0.01000
Br592      Br  0.06580063  0.90035752  0.89420274    -0.01100
Br593      Br  0.19180774  0.89799141  0.95294391    -0.01100
Br594      Br  0.19637369  0.80173808  0.80928512    -0.01000
C595        C  0.22024624  0.60552292  0.74466751    -0.02200
C596        C  0.25564615  0.61973190  0.78091954     0.07500
C597        C  0.29717770  0.62173518  0.75123073    -0.02300
C598        C  0.29967000  0.62025272  0.69181517    -0.02300
C599        C  0.26112376  0.62068222  0.65484274     0.07600
C600        C  0.22097104  0.60964352  0.68567525    -0.02500
Br601      Br  0.16343217  0.59740303  0.65162362    -0.01000
Br602      Br  0.18136019  0.56081928  0.77216622    -0.01100
Br603      Br  0.35776478  0.60672443  0.66641062    -0.01100
Br604      Br  0.35378412  0.61401454  0.78828851    -0.01000
C605        C  0.16418305  0.72721910  0.90280123    -0.02200
C606        C  0.13181926  0.73193325  0.86151265     0.07500
C607        C  0.11966880  0.68591562  0.84479593    -0.02300
C608        C  0.15282005  0.65024428  0.84651424    -0.02300
C609        C  0.20025037  0.66112334  0.85805870     0.07600
C610        C  0.20053831  0.69661194  0.89697452    -0.02500
Br611      Br  0.23115302  0.67650961  0.95804318    -0.01000
Br612      Br  0.12520717  0.71183866  0.95962856    -0.01100
Br613      Br  0.12671878  0.59466059  0.87137906    -0.01100
Br614      Br  0.05806738  0.66896929  0.83009926    -0.01000
C615        C  0.33738325  0.66603900  0.88571277    -0.02200
C616        C  0.29191124  0.66941768  0.86255112     0.07500
C617        C  0.28648252  0.71289937  0.84730925    -0.02300
C618        C  0.31306769  0.74927976  0.86545687    -0.02300
C619        C  0.36078543  0.74735619  0.86695810     0.07600
C620        C  0.37225981  0.70121848  0.87680885    -0.02500
Br621      Br  0.43273374  0.68032699  0.87344324    -0.01000
Br622      Br  0.35944291  0.61344289  0.91887748    -0.01100
Br623      Br  0.27699708  0.79023072  0.90349763    -0.01100
Br624      Br  0.25062825  0.72213601  0.78951400    -0.01000
C625        C  0.74819652  0.13362121  0.34675848    -0.02800
C626        C  0.60220781  0.27838596  0.35072575    -0.02800
C627        C  0.89307532  0.29328103  0.35921792    -0.02800
C628        C  0.74071876  0.43516784  0.34040402    -0.02800
C629        C  0.76228329  0.14085957  0.09010084    -0.02800
C630        C  0.61128593  0.28323839  0.09879063    -0.02800
C631        C  0.90545055  0.29813216  0.10927627    -0.02800
C632        C  0.75409277  0.44087459  0.09675622    -0.02800
O633        O  0.96012540  0.32824583  0.03375858    -0.72100
O634        O  0.55469979  0.31514894  0.42430078    -0.72300
O635        O  0.96235882  0.32549109  0.41642816    -0.72200
O636        O  0.55363052  0.32089689  0.03679707    -0.72200
O637        O  0.55188760  0.25016923  0.02786464    -0.72100
O638        O  0.94280857  0.25867579  0.43328139    -0.72200
O639        O  0.53552134  0.24708947  0.41133846    -0.72100
O640        O  0.96109300  0.25897346  0.04492247    -0.72300
V641        V  0.00676690  0.32142614  0.47774988     1.35200
V642        V  0.99796025  0.25432750  0.47856326     1.35200
C643        C  0.94573845  0.29582303  0.06245220     0.77100
C644        C  0.56074479  0.27991626  0.39558613     0.77200
C645        C  0.93406824  0.29321425  0.40582375     0.77100
C646        C  0.57032132  0.28436370  0.05239999     0.77000
O647        O  0.77733365  0.98085043  0.42010281    -0.72100
O648        O  0.78984937  0.09009814  0.01167339    -0.72300
O649        O  0.78608349  0.99974989  0.03240708    -0.72200
O650        O  0.77990203  0.06841776  0.39816942    -0.72200
O651        O  0.71407819  0.08483585  0.42117302    -0.72100
O652        O  0.71749204  0.98425308  0.02002419    -0.72200
O653        O  0.72426726  0.07375414  0.03742603    -0.72100
O654        O  0.70905712  0.99503296  0.40475244    -0.72300
V655        V  0.78230108  0.03499998  0.46602554     1.35200
V656        V  0.71558246  0.03416326  0.47065020     1.35200
C657        C  0.74280343  0.47293487  0.38963049     0.77100
C658        C  0.75881217  0.09955991  0.04481845     0.77200
C659        C  0.75254934  0.47696883  0.04810510     0.77100
C660        C  0.74684366  0.09267217  0.38900499     0.77000
C661        C  0.88409283  0.38826862  0.07830050    -0.02200
C662        C  0.87517214  0.34495386  0.10424284     0.07500
C663        C  0.83651817  0.35007864  0.13670486    -0.02300
C664        C  0.81591587  0.39078670  0.14720984    -0.02300
C665        C  0.80577436  0.41806051  0.10293005     0.07600
C666        C  0.84840855  0.42176182  0.07276470    -0.02500
Br667      Br  0.86974206  0.47642654  0.03954902    -0.01000
Br668      Br  0.94504034  0.41195194  0.06358515    -0.01100
Br669      Br  0.84911037  0.41880756  0.20728292    -0.01100
Br670      Br  0.79076376  0.31047016  0.13211150    -0.01000
C671        C  0.68369118  0.32700557  0.06015949    -0.02200
C672        C  0.64337791  0.32907848  0.09024740     0.07500
C673        C  0.63342522  0.37503115  0.10014086    -0.02300
C674        C  0.66483484  0.41059976  0.08686363    -0.02300
C675        C  0.71291759  0.40352774  0.08375977     0.07600
C676        C  0.72003957  0.36045400  0.06282782    -0.02500
Br677      Br  0.77043694  0.35691460  0.01446495    -0.01000
Br678      Br  0.67059064  0.30142537  0.99211352    -0.01100
Br679      Br  0.63470064  0.45721531  0.04689981    -0.01100
Br680      Br  0.57598661  0.39545204  0.12139953    -0.01000
C681        C  0.68556060  0.24266521  0.12753900    -0.02200
C682        C  0.64513828  0.24068646  0.09551095     0.07500
C683        C  0.63617677  0.19585824  0.07554943    -0.02300
C684        C  0.67196993  0.16542640  0.06456432    -0.02300
C685        C  0.71666489  0.17136555  0.09066831     0.07600
C686        C  0.71801917  0.20861479  0.12731871    -0.02500
Br687      Br  0.77002013  0.21772984  0.17169380    -0.01000
Br688      Br  0.69439224  0.28968208  0.18011908    -0.01100
Br689      Br  0.65079625  0.11645113  0.01601210    -0.01100
Br690      Br  0.57560591  0.16994474  0.06869863    -0.01000
C691        C  0.80401449  0.22154470  0.05441783    -0.02200
C692        C  0.80663234  0.17621075  0.07422839     0.07500
C693        C  0.85442664  0.16869803  0.07839577    -0.02300
C694        C  0.88754567  0.20485771  0.09276050    -0.02300
C695        C  0.87593446  0.25169969  0.09248007     0.07600
C696        C  0.84028769  0.25373631  0.05641368    -0.02500
Br697      Br  0.85370761  0.28673249  0.99444108    -0.01000
Br698      Br  0.75461462  0.25210612  0.03099858    -0.01100
Br699      Br  0.94723014  0.18641979  0.11176028    -0.01100
Br700      Br  0.87934459  0.11531792  0.04729827    -0.01000
C701        C  0.76790606  0.48117399  0.25176076    -0.02200
C702        C  0.73415146  0.45401469  0.27772037     0.07500
C703        C  0.69891512  0.44014427  0.23772125    -0.02300
C704        C  0.70019004  0.45292221  0.18321667    -0.02300
C705        C  0.74105026  0.46215152  0.15639767     0.07600
C706        C  0.77208840  0.48316257  0.19294116    -0.02500
Br707      Br  0.81981020  0.01343150  0.15996628    -0.01000
Br708      Br  0.80915566  0.01497780  0.29433058    -0.01100
Br709      Br  0.64909920  0.48798453  0.16976122    -0.01100
Br710      Br  0.65385752  0.39193826  0.23449646    -0.01000
C711        C  0.92400947  0.33742654  0.27121456    -0.02200
C712        C  0.91744933  0.29708466  0.30071570     0.07500
C713        C  0.92708745  0.26016009  0.26880621    -0.02300
C714        C  0.91779973  0.25863025  0.21194035    -0.02300
C715        C  0.91826742  0.29740063  0.17697237     0.07600
C716        C  0.92729986  0.33739925  0.21201471    -0.02500
Br717      Br  0.95175972  0.39304258  0.18648289    -0.01000
Br718      Br  0.93471512  0.39287273  0.31267716    -0.01100
Br719      Br  0.87895832  0.20825699  0.21067670    -0.01100
Br720      Br  0.98227749  0.23668780  0.28812312    -0.01000
C721        C  0.82631515  0.33662136  0.31066397    -0.02200
C722        C  0.85753895  0.33464839  0.35585167     0.07500
C723        C  0.85414338  0.37255282  0.39123191    -0.02300
C724        C  0.82544430  0.40929874  0.37973711    -0.02300
C725        C  0.78681746  0.40495494  0.34269741     0.07600
C726        C  0.79210779  0.36862267  0.30588950    -0.02500
Br727      Br  0.75764052  0.36457427  0.24101382    -0.01000
Br728      Br  0.82590854  0.29288064  0.25394457    -0.01100
Br729      Br  0.86146490  0.46441605  0.38537768    -0.01100
Br730      Br  0.89498510  0.38134391  0.44955186    -0.01000
C731        C  0.56966317  0.30864511  0.25158694    -0.02200
C732        C  0.59252387  0.27573448  0.28311804     0.07500
C733        C  0.60878676  0.24204212  0.24429396    -0.02300
C734        C  0.59499504  0.23941415  0.18989009    -0.02300
C735        C  0.59306270  0.27884576  0.16080494     0.07600
C736        C  0.57001708  0.30941586  0.19217043    -0.01900
Br737      Br  0.51566732  0.31430983  0.15556163    -0.01000
Br738      Br  0.53182023  0.34908587  0.28421947    -0.01100
Br739      Br  0.54386831  0.19946291  0.18485115    -0.01100
Br740      Br  0.65238731  0.19723086  0.23741072    -0.01000
C741        C  0.61689069  0.37479693  0.35931321    -0.02200
C742        C  0.63062959  0.32753512  0.36372329     0.07500
C743        C  0.67727287  0.32783576  0.37142852    -0.02300
C744        C  0.70290691  0.36737936  0.38650966    -0.02300
C745        C  0.69797695  0.40277644  0.35232358     0.07600
C746        C  0.65022036  0.41085273  0.34801544    -0.02500
Br747      Br  0.63020931  0.47006455  0.33356601    -0.01000
Br748      Br  0.56420620  0.40014282  0.39208769    -0.01100
Br749      Br  0.69008054  0.39781692  0.45344102    -0.01100
Br750      Br  0.69610754  0.30291387  0.30897743    -0.01000
C751        C  0.72168106  0.10476792  0.24346062    -0.02200
C752        C  0.75613282  0.11998899  0.28060146     0.07500
C753        C  0.79825150  0.12270840  0.25199690    -0.02300
C754        C  0.80188486  0.12173547  0.19264147    -0.02300
C755        C  0.76367836  0.12133140  0.15491621     0.07600
C756        C  0.72358245  0.10856962  0.18446485    -0.02500
Br757      Br  0.66871885  0.09186011  0.14695750    -0.01000
Br758      Br  0.68332282  0.05920529  0.27002512    -0.01100
Br759      Br  0.86087511  0.10834757  0.16865008    -0.01100
Br760      Br  0.85411499  0.11423644  0.29050630    -0.01000
C761        C  0.66329744  0.22688040  0.40214681    -0.02200
C762        C  0.63146981  0.23199834  0.36037661     0.07500
C763        C  0.61951604  0.18602419  0.34313103    -0.02300
C764        C  0.65262751  0.15034769  0.34475431    -0.02300
C765        C  0.69977783  0.16108638  0.35726369     0.07600
C766        C  0.69974681  0.19636045  0.39649306    -0.02500
Br767      Br  0.72851023  0.17501031  0.45804279    -0.01000
Br768      Br  0.62374881  0.21080280  0.45824432    -0.01100
Br769      Br  0.62668955  0.09400073  0.36706571    -0.01100
Br770      Br  0.55817219  0.16869843  0.32790685    -0.01000
C771        C  0.83564340  0.16668548  0.38708333    -0.02200
C772        C  0.79077567  0.16979246  0.36237384     0.07500
C773        C  0.78610030  0.21286505  0.34481904    -0.02300
C774        C  0.81245943  0.24943202  0.36307455    -0.02300
C775        C  0.86014818  0.24744432  0.36640292     0.07600
C776        C  0.87105200  0.20141589  0.37844467    -0.02500
Br777      Br  0.93132951  0.17941234  0.37856081    -0.01000
Br778      Br  0.85634584  0.11424446  0.42125901    -0.01100
Br779      Br  0.77621481  0.28945370  0.40234215    -0.01100
Br780      Br  0.74845140  0.22222789  0.28829620    -0.01000
C781        C  0.74846511  0.13389413  0.84724575    -0.02800
C782        C  0.60231695  0.27857525  0.85111634    -0.02800
C783        C  0.89353448  0.29308671  0.85927092    -0.02800
C784        C  0.74116468  0.43526187  0.84002587    -0.02800
C785        C  0.76000419  0.14016660  0.59002431    -0.02800
C786        C  0.60989463  0.28254892  0.59871180    -0.02800
C787        C  0.90460638  0.29666761  0.60851470    -0.02800
C788        C  0.75376466  0.43981673  0.59629790    -0.02800
O789        O  0.95891616  0.32750990  0.53293354    -0.72100
O790        O  0.55451108  0.31541859  0.92385597    -0.72300
O791        O  0.96221873  0.32569576  0.91731280    -0.72200
O792        O  0.55224607  0.32059626  0.53739596    -0.72200
O793        O  0.55156847  0.25008472  0.52654010    -0.72100
O794        O  0.94354609  0.25835264  0.93316932    -0.72200
O795        O  0.53630332  0.24699326  0.91234957    -0.72100
O796        O  0.96100819  0.25829645  0.54460729    -0.72300
V797        V  0.00730021  0.32168794  0.97798162     1.35200
V798        V  0.99843522  0.25448381  0.97924858     1.35200
C799        C  0.94499748  0.29493305  0.56181107     0.77100
C800        C  0.56090312  0.28001125  0.89582316     0.77200
C801        C  0.93443282  0.29308357  0.90611417     0.77100
C802        C  0.56921508  0.28403816  0.55226482     0.77000
O803        O  0.77820728  0.98155766  0.91876852    -0.72100
O804        O  0.78761960  0.09059531  0.51102019    -0.72300
O805        O  0.78456833  0.00152101  0.53437069    -0.72200
O806        O  0.78115590  0.06944506  0.89866162    -0.72200
O807        O  0.71502620  0.08510944  0.92137598    -0.72100
O808        O  0.71708613  0.98282100  0.51867212    -0.72200
O809        O  0.72258355  0.07272275  0.53755560    -0.72100
O810        O  0.70955344  0.99507211  0.90537104    -0.72300
V811        V  0.78359251  0.03494282  0.96560332     1.35200
V812        V  0.71668558  0.03478075  0.97101983     1.35200
C813        C  0.74315972  0.47321338  0.88915532     0.77100
C814        C  0.75672827  0.09915296  0.54467546     0.77200
C815        C  0.75183054  0.47647914  0.54820313     0.77100
C816        C  0.74770137  0.09317467  0.88939104     0.77000
C817        C  0.88296805  0.38633510  0.57690185    -0.02200
C818        C  0.87437738  0.34330735  0.60347740     0.07500
C819        C  0.83570401  0.34836137  0.63578896    -0.02300
C820        C  0.81508991  0.38897547  0.64617419    -0.02300
C821        C  0.80501427  0.41634368  0.60179805     0.07600
C822        C  0.84685793  0.41899139  0.57022336    -0.02500
Br823      Br  0.86498281  0.46954623  0.52751508    -0.01000
Br824      Br  0.94349579  0.41146072  0.56302007    -0.01100
Br825      Br  0.84894635  0.41564687  0.70654086    -0.01100
Br826      Br  0.79035967  0.30836315  0.63262068    -0.01000
C827        C  0.68219832  0.32627641  0.55991910    -0.02200
C828        C  0.64205714  0.32839182  0.59026356     0.07500
C829        C  0.63258363  0.37432884  0.60113600    -0.02300
C830        C  0.66417931  0.40983934  0.58803009    -0.02300
C831        C  0.71220096  0.40256474  0.58403655     0.07600
C832        C  0.71887646  0.35935140  0.56287766    -0.02500
Br833      Br  0.76922054  0.35484110  0.51460285    -0.01000
Br834      Br  0.66876412  0.30085730  0.49183512    -0.01100
Br835      Br  0.63410444  0.45651603  0.54839234    -0.01100
Br836      Br  0.57549650  0.39485673  0.62387750    -0.01000
C837        C  0.68368653  0.24203324  0.62687121    -0.02200
C838        C  0.64330156  0.24000060  0.59488736     0.07500
C839        C  0.63405915  0.19524698  0.57450326    -0.02300
C840        C  0.66982940  0.16469810  0.56369903    -0.02300
C841        C  0.71448331  0.17068887  0.58999257     0.07600
C842        C  0.71579889  0.20786049  0.62664995    -0.02500
Br843      Br  0.76699474  0.21637209  0.67195715    -0.01000
Br844      Br  0.69330572  0.28962326  0.67917506    -0.01100
Br845      Br  0.64847648  0.11472489  0.51663793    -0.01100
Br846      Br  0.57316703  0.16968085  0.56592869    -0.01000
C847        C  0.80246805  0.22065300  0.55435600    -0.02200
C848        C  0.80483780  0.17533615  0.57432153     0.07500
C849        C  0.85280635  0.16754156  0.57767992    -0.02300
C850        C  0.88632083  0.20352389  0.59162320    -0.02300
C851        C  0.87497067  0.25037021  0.59137471     0.07600
C852        C  0.83908962  0.25256603  0.55565923    -0.02500
Br853      Br  0.85274285  0.28503490  0.49328593    -0.01000
Br854      Br  0.75306235  0.25101344  0.53040145    -0.01100
Br855      Br  0.94601439  0.18511203  0.61104398    -0.01100
Br856      Br  0.87763622  0.11384469  0.54701626    -0.01000
C857        C  0.76926317  0.48043191  0.75120422    -0.02200
C858        C  0.73496296  0.45396451  0.77721569     0.07500
C859        C  0.69968851  0.44046501  0.73716514    -0.02300
C860        C  0.70129507  0.45328836  0.68275203    -0.02300
C861        C  0.74220477  0.46131136  0.65604433     0.07600
C862        C  0.77388528  0.48183682  0.69233996    -0.02500
Br863      Br  0.82387505  0.00963171  0.65935946    -0.01000
Br864      Br  0.81080646  0.01419877  0.79415657    -0.01100
Br865      Br  0.65251905  0.49079531  0.66894812    -0.01100
Br866      Br  0.65437078  0.39257907  0.73360138    -0.01000
C867        C  0.92468837  0.33591977  0.77057791    -0.02200
C868        C  0.91774252  0.29583986  0.80041011     0.07500
C869        C  0.92631280  0.25854058  0.76817870    -0.02300
C870        C  0.91548002  0.25710738  0.71155761    -0.02300
C871        C  0.91735242  0.29575668  0.67631447     0.07600
C872        C  0.92733239  0.33565238  0.71126711    -0.02500
Br873      Br  0.95153117  0.39107445  0.68514229    -0.01000
Br874      Br  0.93547472  0.39147251  0.81170192    -0.01100
Br875      Br  0.87582245  0.20723218  0.70899390    -0.01100
Br876      Br  0.98402893  0.23836245  0.78233002    -0.01000
C877        C  0.82679951  0.33658673  0.81090688    -0.02200
C878        C  0.85823775  0.33473183  0.85590261     0.07500
C879        C  0.85487535  0.37284132  0.89120820    -0.02300
C880        C  0.82609231  0.40949664  0.87959854    -0.02300
C881        C  0.78733728  0.40506953  0.84259004     0.07600
C882        C  0.79247403  0.36849407  0.80607718    -0.02500
Br883      Br  0.75733573  0.36376817  0.74151886    -0.01000
Br884      Br  0.82604468  0.29271097  0.75459579    -0.01100
Br885      Br  0.86214913  0.46464083  0.88637923    -0.01100
Br886      Br  0.89473443  0.38208693  0.95079518    -0.01000
C887        C  0.56961520  0.30859527  0.75157715    -0.02200
C888        C  0.59248667  0.27590865  0.78355390     0.07500
C889        C  0.60854311  0.24185877  0.74532634    -0.02300
C890        C  0.59508454  0.23857985  0.69078789    -0.02300
C891        C  0.59193790  0.27768019  0.66090289     0.07600
C892        C  0.56940802  0.30848423  0.69220351    -0.01900
Br893      Br  0.51492999  0.31205912  0.65574131    -0.01000
Br894      Br  0.53360337  0.35129207  0.78317383    -0.01100
Br895      Br  0.54699508  0.19498907  0.68485779    -0.01100
Br896      Br  0.65462957  0.19973274  0.74048004    -0.01000
C897        C  0.61729294  0.37487221  0.85923134    -0.02200
C898        C  0.63089928  0.32762950  0.86391587     0.07500
C899        C  0.67756540  0.32783575  0.87119352    -0.02300
C900        C  0.70328258  0.36741611  0.88608875    -0.02300
C901        C  0.69839552  0.40275581  0.85178210     0.07600
C902        C  0.65062798  0.41075975  0.84733406    -0.02500
Br903      Br  0.63057184  0.46981898  0.83235618    -0.01000
Br904      Br  0.56524577  0.40053308  0.89310392    -0.01100
Br905      Br  0.69027344  0.39813413  0.95288184    -0.01100
Br906      Br  0.69617919  0.30194467  0.80903005    -0.01000
C907        C  0.71983357  0.10565592  0.74472148    -0.02200
C908        C  0.75521854  0.11994237  0.78104788     0.07500
C909        C  0.79675384  0.12180135  0.75148447    -0.02300
C910        C  0.79935393  0.12025021  0.69208548    -0.02300
C911        C  0.76087580  0.12052977  0.65493948     0.07600
C912        C  0.72068651  0.10953024  0.68567142    -0.02500
Br913      Br  0.66340579  0.09679119  0.65113749    -0.01000
Br914      Br  0.68075728  0.06113822  0.77225639    -0.01100
Br915      Br  0.85755727  0.10677451  0.66713933    -0.01100
Br916      Br  0.85315383  0.11389022  0.78888395    -0.01000
C917        C  0.66359650  0.22736811  0.90269225    -0.02200
C918        C  0.63142046  0.23216209  0.86121057     0.07500
C919        C  0.61926026  0.18611923  0.84453593    -0.02300
C920        C  0.65242818  0.15044019  0.84637462    -0.02300
C921        C  0.69985788  0.16135109  0.85800170     0.07600
C922        C  0.70000864  0.19681537  0.89693603    -0.02500
Br923      Br  0.73021501  0.17641864  0.95809538    -0.01000
Br924      Br  0.62457714  0.21185720  0.95951997    -0.01100
Br925      Br  0.62633663  0.09496184  0.87159674    -0.01100
Br926      Br  0.55760843  0.16914347  0.83019639    -0.01000
C927        C  0.83713259  0.16635877  0.88587837    -0.02200
C928        C  0.79158031  0.16970923  0.86292357     0.07500
C929        C  0.78605013  0.21330228  0.84823466    -0.02300
C930        C  0.81286260  0.24962280  0.86603786    -0.02300
C931        C  0.86058448  0.24759516  0.86699576     0.07600
C932        C  0.87201403  0.20145545  0.87665433    -0.02500
Br933      Br  0.93243126  0.18055237  0.87264900    -0.01000
Br934      Br  0.85922102  0.11410838  0.91967423    -0.01100
Br935      Br  0.77693968  0.29103854  0.90345793    -0.01100
Br936      Br  0.75102585  0.22254922  0.78991202    -0.01000
C937        C  0.74844026  0.63352917  0.34707699    -0.02800
C938        C  0.60223602  0.77815574  0.35128213    -0.02800
C939        C  0.89347470  0.79313281  0.35980607    -0.02800
C940        C  0.74071482  0.93489074  0.34054439    -0.02800
C941        C  0.76212912  0.64065969  0.09017878    -0.02800
C942        C  0.61111671  0.78260681  0.09916797    -0.02800
C943        C  0.90531586  0.79803742  0.10940008    -0.02800
C944        C  0.75394923  0.94061698  0.09684975    -0.02800
O945        O  0.96017006  0.82810066  0.03394616    -0.72100
O946        O  0.55507211  0.81510711  0.42504307    -0.72300
O947        O  0.96277918  0.82547965  0.41684335    -0.72200
O948        O  0.55365892  0.82052016  0.03712430    -0.72200
O949        O  0.55174066  0.74980520  0.02810424    -0.72100
O950        O  0.94298301  0.75885100  0.43424390    -0.72200
O951        O  0.53558408  0.74711535  0.41206282    -0.72100
O952        O  0.96093961  0.75881783  0.04498715    -0.72300
V953        V  0.00704518  0.82156180  0.47833293     1.35200
V954        V  0.99819062  0.75450054  0.47937362     1.35200
C955        C  0.94564433  0.79569449  0.06256119     0.77100
C956        C  0.56090356  0.77984315  0.39627217     0.77200
C957        C  0.93440384  0.79323639  0.40645579     0.77100
C958        C  0.57022575  0.78392323  0.05271489     0.77000
O959        O  0.77745121  0.48081746  0.42021343    -0.72100
O960        O  0.78970862  0.59030268  0.01135656    -0.72300
O961        O  0.78604819  0.50031274  0.03278824    -0.72200
O962        O  0.78002421  0.56828337  0.39832418    -0.72200
O963        O  0.71434078  0.58489496  0.42153833    -0.72100
O964        O  0.71776452  0.48396441  0.01945292    -0.72200
O965        O  0.72436966  0.57343458  0.03757519    -0.72100
O966        O  0.70920661  0.49517328  0.40487677    -0.72300
V967        V  0.78245952  0.53495168  0.46618631     1.35200
V968        V  0.71576919  0.53417972  0.47085682     1.35200
C969        C  0.74269023  0.97281398  0.38958495     0.77100
C970        C  0.75877365  0.59947326  0.04478075     0.77200
C971        C  0.75242590  0.97679931  0.04817906     0.77100
C972        C  0.74703580  0.59260514  0.38925234     0.77000
C973        C  0.88403256  0.88824381  0.07863422    -0.02200
C974        C  0.87504174  0.84486758  0.10439946     0.07500
C975        C  0.83637704  0.84998215  0.13686750    -0.02300
C976        C  0.81573447  0.89066528  0.14742773    -0.02300
C977        C  0.80568749  0.91798747  0.10320741     0.07600
C978        C  0.84841289  0.92183933  0.07326217    -0.02500
Br979      Br  0.87008785  0.97697547  0.04142702    -0.01000
Br980      Br  0.94501883  0.91176280  0.06384348    -0.01100
Br981      Br  0.84902196  0.91879163  0.20740669    -0.01100
Br982      Br  0.79101605  0.80986484  0.13350218    -0.01000
C983        C  0.68369570  0.82641932  0.06067057    -0.02200
C984        C  0.64332969  0.82844477  0.09071524     0.07500
C985        C  0.63340897  0.87437719  0.10059362    -0.02300
C986        C  0.66474669  0.90995262  0.08703544    -0.02300
C987        C  0.71286468  0.90306007  0.08391020     0.07600
C988        C  0.72011159  0.85984990  0.06345336    -0.02500
Br989      Br  0.77081892  0.85608061  0.01553064    -0.01000
Br990      Br  0.67024058  0.80169178  0.99230071    -0.01100
Br991      Br  0.63445786  0.95598352  0.04643931    -0.01100
Br992      Br  0.57602610  0.89464488  0.12225490    -0.01000
C993        C  0.68518761  0.74206258  0.12796936    -0.02200
C994        C  0.64488385  0.74010882  0.09574541     0.07500
C995        C  0.63601007  0.69535917  0.07542198    -0.02300
C996        C  0.67194301  0.66513444  0.06428068    -0.02300
C997        C  0.71649031  0.67103783  0.09071627     0.07600
C998        C  0.71761692  0.70804793  0.12771610    -0.02500
Br999      Br  0.76934453  0.71710153  0.17243904    -0.01000
Br1000     Br  0.69418208  0.78922517  0.18047219    -0.01100
Br1001     Br  0.65111923  0.61623220  0.01548689    -0.01100
Br1002     Br  0.57545894  0.66934799  0.06773770    -0.01000
C1003       C  0.80368367  0.72158584  0.05506244    -0.02200
C1004       C  0.80645346  0.67617385  0.07452060     0.07500
C1005       C  0.85432348  0.66871514  0.07817818    -0.02300
C1006       C  0.88749396  0.70482686  0.09256209    -0.02300
C1007       C  0.87580742  0.75164351  0.09255215     0.07600
C1008       C  0.83996393  0.75376470  0.05682490    -0.02500
Br1009     Br  0.85368517  0.78590214  0.99434358    -0.01000
Br1010     Br  0.75411690  0.75203863  0.03190228    -0.01100
Br1011     Br  0.94720265  0.68637244  0.11184835    -0.01100
Br1012     Br  0.87925707  0.61554846  0.04664687    -0.01000
C1013       C  0.76766929  0.98082906  0.25180863    -0.02200
C1014       C  0.73407289  0.95353081  0.27777132     0.07500
C1015       C  0.69887081  0.93948970  0.23778353    -0.02300
C1016       C  0.70000033  0.95237809  0.18330733    -0.02300
C1017       C  0.74079830  0.96183598  0.15646419     0.07600
C1018       C  0.77176239  0.98295112  0.19301152    -0.02500
Br1019     Br  0.82047736  0.51307463  0.15980337    -0.01000
Br1020     Br  0.80952956  0.51525345  0.29426688    -0.01100
Br1021     Br  0.64858601  0.98701935  0.16965127    -0.01100
Br1022     Br  0.65407704  0.89102824  0.23459138    -0.01000
C1023       C  0.92429038  0.83707880  0.27153828    -0.02200
C1024       C  0.91786587  0.79673505  0.30114742     0.07500
C1025       C  0.92682906  0.75971810  0.26885345    -0.02300
C1026       C  0.91726789  0.75841343  0.21203866    -0.02300
C1027       C  0.91803518  0.79720684  0.17714844     0.07600
C1028       C  0.92734372  0.83709354  0.21228204    -0.02500
Br1029     Br  0.95188110  0.89264555  0.18667588    -0.01000
Br1030     Br  0.93502210  0.89260818  0.31286887    -0.01100
Br1031     Br  0.87840179  0.70806686  0.21023006    -0.01100
Br1032     Br  0.98153689  0.73465675  0.28705293    -0.01000
C1033       C  0.82663583  0.83642791  0.31131553    -0.02200
C1034       C  0.85794007  0.83458084  0.35641150     0.07500
C1035       C  0.85462726  0.87272190  0.39153749    -0.02300
C1036       C  0.82570326  0.90934486  0.37996856    -0.02300
C1037       C  0.78694367  0.90476512  0.34307325     0.07600
C1038       C  0.79233469  0.86833973  0.30644668    -0.02500
Br1039     Br  0.75783802  0.86404296  0.24163803    -0.01000
Br1040     Br  0.82617356  0.79251693  0.25494402    -0.01100
Br1041     Br  0.86137206  0.96472073  0.38566814    -0.01100
Br1042     Br  0.89593548  0.88212528  0.44939209    -0.01000
C1043       C  0.56938123  0.80780672  0.25193292    -0.02200
C1044       C  0.59245933  0.77521226  0.28367913     0.07500
C1045       C  0.60887664  0.74146547  0.24509073    -0.02300
C1046       C  0.59531898  0.73858021  0.19058032    -0.02300
C1047       C  0.59283471  0.77791203  0.16121144     0.07600
C1048       C  0.56968721  0.80838598  0.19252719    -0.01900
Br1049     Br  0.51542035  0.81322558  0.15578215    -0.01000
Br1050     Br  0.53167331  0.84838769  0.28429507    -0.01100
Br1051     Br  0.54538081  0.69708992  0.18518236    -0.01100
Br1052     Br  0.65326455  0.69743206  0.23902338    -0.01000
C1053       C  0.61683697  0.87456683  0.35926924    -0.02200
C1054       C  0.63060955  0.82734852  0.36398678     0.07500
C1055       C  0.67722813  0.82769177  0.37187158    -0.02300
C1056       C  0.70277694  0.86730669  0.38694693    -0.02300
C1057       C  0.69795328  0.90254679  0.35251349     0.07600
C1058       C  0.65018843  0.91059294  0.34791994    -0.02500
Br1059     Br  0.63016098  0.96971866  0.33301792    -0.01000
Br1060     Br  0.56399653  0.89992617  0.39165595    -0.01100
Br1061     Br  0.68955540  0.89804240  0.45363941    -0.01100
Br1062     Br  0.69599548  0.80260948  0.30942586    -0.01000
C1063       C  0.72157918  0.60486372  0.24379196    -0.02200
C1064       C  0.75621739  0.61993315  0.28079948     0.07500
C1065       C  0.79822927  0.62259901  0.25186937    -0.02300
C1066       C  0.80165042  0.62135303  0.19248696    -0.02300
C1067       C  0.76339550  0.62098800  0.15493467     0.07600
C1068       C  0.72327301  0.60861213  0.18475669    -0.02500
Br1069     Br  0.66782497  0.59293191  0.14781206    -0.01000
Br1070     Br  0.68246362  0.56009899  0.27073450    -0.01100
Br1071     Br  0.86051444  0.60816397  0.16797410    -0.01100
Br1072     Br  0.85442890  0.61482010  0.28979613    -0.01000
C1073       C  0.66364869  0.72693399  0.40264086    -0.02200
C1074       C  0.63154480  0.73182213  0.36112059     0.07500
C1075       C  0.61949919  0.68577699  0.34427364    -0.02300
C1076       C  0.65266821  0.65012386  0.34588337    -0.02300
C1077       C  0.69996279  0.66100663  0.35774873     0.07600
C1078       C  0.70004452  0.69634980  0.39690623    -0.02500
Br1079     Br  0.72896401  0.67502548  0.45838998    -0.01000
Br1080     Br  0.62433528  0.71113166  0.45904376    -0.01100
Br1081     Br  0.62682854  0.59397634  0.36920447    -0.01100
Br1082     Br  0.55793925  0.66845994  0.33059979    -0.01000
C1083       C  0.83623457  0.66612681  0.38726538    -0.02200
C1084       C  0.79122206  0.66948765  0.36294248     0.07500
C1085       C  0.78642295  0.71276061  0.34628266    -0.02300
C1086       C  0.81288496  0.74920807  0.36458349    -0.02300
C1087       C  0.86059665  0.74723915  0.36734730     0.07600
C1088       C  0.87156991  0.70110292  0.37907310    -0.02500
Br1089     Br  0.93198887  0.67942187  0.38014207    -0.01000
Br1090     Br  0.85722438  0.61299416  0.41999741    -0.01100
Br1091     Br  0.77648152  0.78984473  0.40273941    -0.01100
Br1092     Br  0.74930686  0.72242123  0.28950170    -0.01000
C1093       C  0.74879056  0.63367570  0.84714011    -0.02800
C1094       C  0.60264806  0.77832840  0.85160426    -0.02800
C1095       C  0.89363068  0.79298277  0.85942362    -0.02800
C1096       C  0.74129575  0.93520454  0.84017403    -0.02800
C1097       C  0.76023383  0.64036572  0.58999331    -0.02800
C1098       C  0.61013388  0.78281147  0.59939948    -0.02800
C1099       C  0.90467404  0.79699641  0.60880514    -0.02800
C1100       C  0.75367994  0.94009608  0.59645939    -0.02800
O1101       O  0.95905906  0.82778408  0.53330872    -0.72100
O1102       O  0.55467971  0.81514333  0.92420134    -0.72300
O1103       O  0.96234728  0.82559326  0.91750118    -0.72200
O1104       O  0.55239927  0.82079466  0.53814191    -0.72200
O1105       O  0.55186948  0.75028867  0.52723628    -0.72100
O1106       O  0.94361560  0.75825999  0.93327186    -0.72200
O1107       O  0.53643515  0.74673728  0.91263284    -0.72100
O1108       O  0.96137840  0.75865490  0.54545242    -0.72300
V1109       V  0.00739952  0.82145290  0.97822905     1.35200
V1110       V  0.99841338  0.75426016  0.97941826     1.35200
C1111       C  0.94519605  0.79528212  0.56234179     0.77100
C1112       C  0.56114217  0.77972898  0.89622478     0.77200
C1113       C  0.93453915  0.79300167  0.90625142     0.77100
C1114       C  0.56942719  0.78425081  0.55300487     0.77000
O1115       O  0.77808266  0.48133150  0.91904170    -0.72100
O1116       O  0.78781151  0.59061802  0.51107557    -0.72300
O1117       O  0.78466871  0.50149112  0.53456970    -0.72200
O1118       O  0.78118693  0.56910505  0.89843960    -0.72200
O1119       O  0.71527148  0.58523020  0.92150707    -0.72100
O1120       O  0.71721614  0.48273565  0.51870119    -0.72200
O1121       O  0.72284055  0.57270791  0.53779964    -0.72100
O1122       O  0.70960237  0.49529066  0.90506298    -0.72300
V1123       V  0.78359794  0.53496679  0.96559304     1.35200
V1124       V  0.71677730  0.53474134  0.97090262     1.35200
C1125       C  0.74320253  0.97322961  0.88919079     0.77100
C1126       C  0.75694329  0.59923335  0.54475246     0.77200
C1127       C  0.75170262  0.97662649  0.54819350     0.77100
C1128       C  0.74788964  0.59304665  0.88933109     0.77000
C1129       C  0.88298882  0.88666700  0.57715765    -0.02200
C1130       C  0.87441467  0.84363841  0.60374741     0.07500
C1131       C  0.83568598  0.84864755  0.63598024    -0.02300
C1132       C  0.81501466  0.88922850  0.64635007    -0.02300
C1133       C  0.80496817  0.91663606  0.60199733     0.07600
C1134       C  0.84688786  0.91936170  0.57052890    -0.02500
Br1135     Br  0.86526711  0.97025166  0.52848587    -0.01000
Br1136     Br  0.94355865  0.91173086  0.56338146    -0.01100
Br1137     Br  0.84877744  0.91581226  0.70681987    -0.01100
Br1138     Br  0.79027318  0.80874681  0.63252600    -0.01000
C1139       C  0.68234978  0.82651108  0.56049172    -0.02200
C1140       C  0.64226630  0.82863424  0.59091831     0.07500
C1141       C  0.63264767  0.87458404  0.60148020    -0.02300
C1142       C  0.66415665  0.91011029  0.58820871    -0.02300
C1143       C  0.71217014  0.90286438  0.58423423     0.07600
C1144       C  0.71891890  0.85967533  0.56318042    -0.02500
Br1145     Br  0.76905469  0.85539374  0.51457965    -0.01000
Br1146     Br  0.66866402  0.80129615  0.49240993    -0.01100
Br1147     Br  0.63404920  0.95699175  0.54893130    -0.01100
Br1148     Br  0.57554290  0.89505323  0.62416907    -0.01000
C1149       C  0.68403026  0.74217454  0.62731635    -0.02200
C1150       C  0.64356162  0.74019927  0.59549012     0.07500
C1151       C  0.63433043  0.69544216  0.57508150    -0.02300
C1152       C  0.67011079  0.66494940  0.56404462    -0.02300
C1153       C  0.71479768  0.67093455  0.59014268     0.07600
C1154       C  0.71624539  0.70808482  0.62682869    -0.02500
Br1155     Br  0.76773029  0.71660868  0.67179644    -0.01000
Br1156     Br  0.69355108  0.78945101  0.67985306    -0.01100
Br1157     Br  0.64880524  0.61490866  0.51713371    -0.01100
Br1158     Br  0.57349650  0.66980037  0.56650172    -0.01000
C1159       C  0.80261275  0.72099476  0.55417300    -0.02200
C1160       C  0.80498961  0.67563036  0.57411602     0.07500
C1161       C  0.85293008  0.66790796  0.57751267    -0.02300
C1162       C  0.88640551  0.70384681  0.59164537    -0.02300
C1163       C  0.87506684  0.75070407  0.59149997     0.07600
C1164       C  0.83923552  0.75295925  0.55569644    -0.02500
Br1165     Br  0.85280016  0.78618704  0.49384262    -0.01000
Br1166     Br  0.75313665  0.75138861  0.53033977    -0.01100
Br1167     Br  0.94604722  0.68521809  0.61098768    -0.01100
Br1168     Br  0.87777384  0.61454789  0.54616009    -0.01000
C1169       C  0.76921287  0.98046844  0.75138583    -0.02200
C1170       C  0.73501399  0.95388232  0.77740451     0.07500
C1171       C  0.69973493  0.94027522  0.73745157    -0.02300
C1172       C  0.70116469  0.95321634  0.68308813    -0.02300
C1173       C  0.74199422  0.96157457  0.65621875     0.07600
C1174       C  0.77370697  0.98203604  0.69251848    -0.02500
Br1175     Br  0.82401561  0.50953136  0.65919796    -0.01000
Br1176     Br  0.81056423  0.51451316  0.79396698    -0.01100
Br1177     Br  0.65191197  0.99029803  0.66989589    -0.01100
Br1178     Br  0.65445630  0.89231177  0.73417216    -0.01000
C1179       C  0.92451814  0.83611776  0.77080783    -0.02200
C1180       C  0.91780811  0.79596790  0.80058947     0.07500
C1181       C  0.92644883  0.75873051  0.76831914    -0.02300
C1182       C  0.91576023  0.75731398  0.71168240    -0.02300
C1183       C  0.91737294  0.79602761  0.67655276     0.07600
C1184       C  0.92718430  0.83591945  0.71152898    -0.02500
Br1185     Br  0.95137765  0.89139062  0.68549810    -0.01000
Br1186     Br  0.93509850  0.89172185  0.81190156    -0.01100
Br1187     Br  0.87643111  0.70717321  0.70910753    -0.01100
Br1188     Br  0.98378976  0.73786825  0.78304250    -0.01000
C1189       C  0.82681246  0.83641352  0.81112885    -0.02200
C1190       C  0.85822304  0.83453699  0.85616211     0.07500
C1191       C  0.85483077  0.87260468  0.89153282    -0.02300
C1192       C  0.82616920  0.90934709  0.87987892    -0.02300
C1193       C  0.78749232  0.90502572  0.84274605     0.07600
C1194       C  0.79256813  0.86839605  0.80628601    -0.02500
Br1195     Br  0.75743246  0.86367891  0.74176841    -0.01000
Br1196     Br  0.82605148  0.79253954  0.75467397    -0.01100
Br1197     Br  0.86235809  0.96441652  0.88682344    -0.01100
Br1198     Br  0.89453774  0.88167894  0.95128851    -0.01000
C1199       C  0.56982412  0.80852947  0.75251061    -0.02200
C1200       C  0.59274474  0.77570832  0.78410598     0.07500
C1201       C  0.60863829  0.74173399  0.74562660    -0.02300
C1202       C  0.59505416  0.73879219  0.69112857    -0.02300
C1203       C  0.59221593  0.77804655  0.66159953     0.07600
C1204       C  0.56965647  0.80877917  0.69310939    -0.01900
Br1205     Br  0.51513246  0.81252633  0.65680521    -0.01000
Br1206     Br  0.53310511  0.85017631  0.78509029    -0.01100
Br1207     Br  0.54637824  0.69590231  0.68483045    -0.01100
Br1208     Br  0.65406242  0.69889399  0.74018709    -0.01000
C1209       C  0.61764891  0.87467196  0.85995806    -0.02200
C1210       C  0.63125870  0.82741177  0.86444727     0.07500
C1211       C  0.67795664  0.82762217  0.87147299    -0.02300
C1212       C  0.70383861  0.86715445  0.88605365    -0.02300
C1213       C  0.69865553  0.90260619  0.85202235     0.07600
C1214       C  0.65089554  0.91058387  0.84794754    -0.02500
Br1215     Br  0.63079905  0.96964869  0.83303369    -0.01000
Br1216     Br  0.56587101  0.90038813  0.89429509    -0.01100
Br1217     Br  0.69185234  0.89797330  0.95299305    -0.01100
Br1218     Br  0.69643684  0.80169619  0.80936239    -0.01000
C1219       C  0.72021886  0.60556102  0.74471339    -0.02200
C1220       C  0.75562937  0.61973259  0.78096453     0.07500
C1221       C  0.79715882  0.62172444  0.75128010    -0.02300
C1222       C  0.79964982  0.62025916  0.69186479    -0.02300
C1223       C  0.76110523  0.62070307  0.65488449     0.07600
C1224       C  0.72094371  0.60968567  0.68572175    -0.02500
Br1225     Br  0.66337310  0.59751871  0.65170530    -0.01000
Br1226     Br  0.68124956  0.56094453  0.77224647    -0.01100
Br1227     Br  0.85774762  0.60674771  0.66647971    -0.01100
Br1228     Br  0.85375509  0.61398278  0.78836039    -0.01000
C1229       C  0.66417853  0.72724233  0.90281940    -0.02200
C1230       C  0.63181180  0.73195219  0.86153685     0.07500
C1231       C  0.61965359  0.68593517  0.84482494    -0.02300
C1232       C  0.65280187  0.65026081  0.84656417    -0.02300
C1233       C  0.70024020  0.66114267  0.85808641     0.07600
C1234       C  0.70053790  0.69664359  0.89698327    -0.02500
Br1235     Br  0.73116017  0.67655608  0.95805151    -0.01000
Br1236     Br  0.62520007  0.71184814  0.95964274    -0.01100
Br1237     Br  0.62668519  0.59471874  0.87155044    -0.01100
Br1238     Br  0.55804552  0.66900091  0.83012448    -0.01000
C1239       C  0.83737347  0.66604372  0.88575995    -0.02200
C1240       C  0.79190774  0.66942305  0.86258110     0.07500
C1241       C  0.78649293  0.71289868  0.84731537    -0.02300
C1242       C  0.81308792  0.74927779  0.86543668    -0.02300
C1243       C  0.86080376  0.74733992  0.86694526     0.07600
C1244       C  0.87226329  0.70120384  0.87683322    -0.02500
Br1245     Br  0.93272766  0.68028052  0.87349850    -0.01000
Br1246     Br  0.85940749  0.61347246  0.91899528    -0.01100
Br1247     Br  0.77704148  0.79020641  0.90354992    -0.01100
Br1248     Br  0.75069268  0.72210666  0.78947773    -0.01000
loop_ 
_geom_bond_atom_site_label_1 
_geom_bond_atom_site_label_2 
_geom_bond_distance 
_geom_bond_site_symmetry_2 
_ccdc_geom_bond_type 
C1           C36   1.626       .  S
C1          C128   1.692       .  S
C1          C141   1.709       .  S
C1          C148   1.676       .  S
C2           C20   1.674       .  S
C2          C108   1.681       .  S
C2          C118   1.697       .  S
C2          C138   1.688       .  S
C3           C21   1.660       .  S
C3           C88   1.628       .  S
C3           C98   1.663       .  S
C3          C151   1.677       .  S
C4           C33   1.640       .  S
C4           C78   1.663       .  S
C4          C101   1.674       .  S
C4          C121   1.611       .  S
C5           C34   1.648       .  S
C5           C61   1.667       .  S
C5           C68   1.723       .  S
C5          C131   1.709       .  S
C6           C22   1.657       .  S
C6           C48   1.668       .  S
C6           C58   1.657       .  S
C6          C111   1.635       .  S
C7           C19   1.682       .  S
C7           C38   1.703       .  S
C7           C71   1.663       .  S
C7           C91   1.701       .  S
C8           C35   1.632       .  S
C8           C41   1.714       .  S
C8           C51   1.656       .  S
C8           C81   1.646       .  S
O9           C19   1.281       .  A
O9          V173   1.995   1_554  S
O10          C20   1.279       .  A
O10         V641   1.972       .  S
O11          C21   1.282       .  A
O11          V17   1.996       .  S
O12          C22   1.283       .  A
O12         V797   1.982   1_554  S
O13          C22   1.281       .  A
O13         V798   1.983   1_454  S
O14          C21   1.281       .  A
O14          V18   1.978       .  S
O15          C20   1.289       .  A
O15         V642   2.027   1_455  S
O16          C19   1.282       .  A
O16         V174   1.984   1_554  S
V17         O165   1.998       .  S
V17         O634   1.972       .  S
V17         O792   1.979       .  S
V17          V18   2.023       .  T
V18         O793   1.978       .  S
V18         O639   2.027       .  S
V18         O172   1.983       .  S
O23         C345   1.278       .  A
O23          V31   1.960   1_565  S
O24          C34   1.280       .  A
O24         V187   1.988   1_554  S
O25         C347   1.269       .  A
O25         V187   1.973   1_564  S
O26          C36   1.266       .  A
O26          V31   1.966       .  S
O27          C36   1.287       .  A
O27          V32   1.969       .  S
O28         C347   1.269       .  A
O28         V188   1.957   1_564  S
O29          C34   1.275       .  A
O29         V188   1.993   1_554  S
O30         C345   1.281       .  A
O30          V32   1.984   1_565  S
V31         O180   1.983       .  S
V31         O181   1.977       .  S
V31          V32   1.995       .  T
V32         O184   1.962   1_545  S
V32         O185   1.995       .  S
C33         O335   1.279       .  A
C33         O342   1.281       .  A
C35         O337   1.268       .  A
C35         O340   1.269       .  A
C37          C38   1.478       .  A
C37          C42   1.496       .  A
C37         Br44   1.971       .  S
C38          C39   1.425       .  A
C39          C40   1.408       .  A
C39         Br46   1.779       .  S
C40          C41   1.410       .  A
C40         Br45   1.924       .  S
C41          C42   1.486       .  A
C42         Br43   1.941       .  S
C47          C48   1.426       .  A
C47          C52   1.452       .  A
C47         Br54   1.855   1_554  S
C48          C49   1.438       .  A
C49          C50   1.443       .  A
C49         Br56   1.918       .  S
C50          C51   1.460       .  A
C50         Br55   1.960       .  S
C51          C52   1.406       .  A
C52         Br53   1.938       .  S
C57          C58   1.426       .  A
C57          C62   1.432       .  A
C57         Br64   1.902       .  S
C58          C59   1.437       .  A
C59          C60   1.455       .  A
C59         Br66   1.945       .  S
C60          C61   1.472       .  A
C60         Br65   1.954       .  S
C61          C62   1.420       .  A
C62         Br63   1.888       .  S
C67          C68   1.459       .  A
C67          C72   1.425       .  A
C67         Br74   1.852       .  S
C68          C69   1.453       .  A
C69          C70   1.475       .  A
C69         Br76   1.939       .  S
C70          C71   1.460       .  A
C70         Br75   1.934       .  S
C71          C72   1.375       .  A
C72         Br73   1.877   1_554  S
C77          C78   1.440       .  A
C77          C82   1.456       .  A
C77        Br396   1.870       .  S
C78          C79   1.469       .  A
C79          C80   1.402       .  A
C79         Br86   1.940       .  S
C80          C81   1.418       .  A
C80         Br85   1.910       .  S
C81          C82   1.402       .  A
C82        Br395   1.881       .  S
Br83        C394   1.880   1_545  S
Br84        C389   1.869   1_545  S
C87          C88   1.434       .  A
C87          C92   1.460       .  A
C87         Br94   1.947       .  S
C88          C89   1.386       .  A
C89          C90   1.419       .  A
C89         Br96   1.870       .  S
C90          C91   1.461       .  A
C90         Br95   1.872       .  S
C91          C92   1.477       .  A
C92         Br93   1.922       .  S
C97          C98   1.439       .  A
C97         C102   1.431       .  A
C97        Br104   1.895       .  S
C98          C99   1.425       .  A
C99         C100   1.449       .  A
C99        Br106   1.872       .  S
C100        C101   1.455       .  A
C100       Br105   1.942       .  S
C101        C102   1.418       .  A
C102       Br103   1.880       .  S
C107        C108   1.449       .  A
C107        C112   1.461       .  A
C107       Br114   1.866       .  S
C108        C109   1.477       .  A
C109        C110   1.391       .  A
C109       Br116   1.911       .  S
C110        C111   1.398       .  A
C110       Br115   1.907       .  S
C111        C112   1.394       .  A
C112       Br113   1.851       .  S
C117        C118   1.496       .  A
C117        C122   1.478       .  A
C117       Br124   1.950       .  S
C118        C119   1.400       .  A
C119        C120   1.428       .  A
C119       Br126   1.802       .  S
C120        C121   1.379       .  A
C120       Br125   1.916       .  S
C121        C122   1.456       .  A
C122       Br123   1.933       .  S
C127        C128   1.419       .  A
C127        C132   1.459       .  A
C127       Br134   1.888       .  S
C128        C129   1.452       .  A
C129        C130   1.465       .  A
C129       Br136   1.928       .  S
C130        C131   1.455       .  A
C130       Br135   1.919       .  S
C131        C132   1.455       .  A
C132       Br133   1.909       .  S
C137        C138   1.399       .  A
C137        C142   1.453       .  A
C137       Br144   1.891       .  S
C138        C139   1.466       .  A
C139        C140   1.483       .  A
C139       Br146   1.913       .  S
C140        C141   1.457       .  A
C140       Br145   1.930       .  S
C141        C142   1.417       .  A
C142       Br143   1.861       .  S
C147        C148   1.466       .  A
C147        C152   1.479       .  A
C147       Br154   1.916       .  S
C148        C149   1.383       .  A
C149        C150   1.389       .  A
C149       Br156   1.802       .  S
C150        C151   1.427       .  A
C150       Br155   1.904       .  S
C151        C152   1.466       .  A
C152       Br153   1.937       .  S
C157        C192   1.619       .  S
C157        C284   1.689       .  S
C157        C297   1.715       .  S
C157        C304   1.681       .  S
C158        C176   1.670       .  S
C158        C264   1.681       .  S
C158        C274   1.696       .  S
C158        C294   1.688       .  S
C159        C177   1.662       .  S
C159        C244   1.632       .  S
C159        C254   1.665       .  S
C159        C307   1.671       .  S
C160        C189   1.642       .  S
C160        C234   1.663       .  S
C160        C257   1.676       .  S
C160        C277   1.613       .  S
C161        C190   1.643       .  S
C161        C217   1.664       .  S
C161        C224   1.729       .  S
C161        C287   1.712       .  S
C162        C178   1.652       .  S
C162        C204   1.669       .  S
C162        C214   1.650       .  S
C162        C267   1.637       .  S
C163        C175   1.681       .  S
C163        C194   1.697       .  S
C163        C227   1.663       .  S
C163        C247   1.703       .  S
C164        C191   1.634       .  S
C164        C197   1.710       .  S
C164        C207   1.659       .  S
C164        C237   1.639       .  S
O165        C175   1.282       .  A
O166        C176   1.277       .  A
O166        V797   1.967       .  S
O167        C177   1.283       .  A
O167        V173   1.997       .  S
O168        C178   1.282       .  A
O168        V641   1.979       .  S
O169        C178   1.280       .  A
O169        V642   1.978   1_455  S
O170        C177   1.283       .  A
O170        V174   1.981       .  S
O171        C176   1.290       .  A
O171        V798   2.025   1_455  S
O172        C175   1.281       .  A
V173        O790   1.966       .  S
V173        O636   1.982   1_556  S
V173        V174   2.027       .  T
V174        O637   1.983   1_556  S
V174        O795   2.025       .  S
O179        C501   1.275       .  A
O179        V187   1.954   1_565  S
O180        C190   1.279       .  A
O181        C503   1.268   1_545  A
O182        C192   1.266       .  A
O182        V187   1.964       .  S
O183        C192   1.284       .  A
O183        V188   1.963       .  S
O184        C503   1.272       .  A
O185        C190   1.276       .  A
O186        C501   1.283       .  A
O186        V188   1.990   1_565  S
V187        V188   2.003       .  T
C189        O491   1.277       .  A
C189        O498   1.282       .  A
C191        O493   1.268       .  A
C191        O496   1.272       .  A
C193        C194   1.476       .  A
C193        C198   1.491       .  A
C193       Br200   1.971       .  S
C194        C195   1.424       .  A
C195        C196   1.406       .  A
C195       Br202   1.777       .  S
C196        C197   1.413       .  A
C196       Br201   1.923       .  S
C197        C198   1.483       .  A
C198       Br199   1.931       .  S
C203        C204   1.425       .  A
C203        C208   1.451       .  A
C203       Br210   1.856       .  S
C204        C205   1.438       .  A
C205        C206   1.444       .  A
C205       Br212   1.920       .  S
C206        C207   1.461       .  A
C206       Br211   1.957       .  S
C207        C208   1.410       .  A
C208       Br209   1.938       .  S
C213        C214   1.425       .  A
C213        C218   1.428       .  A
C213       Br220   1.913       .  S
C214        C215   1.440       .  A
C215        C216   1.456       .  A
C215       Br222   1.953       .  S
C216        C217   1.473       .  A
C216       Br221   1.956       .  S
C217        C218   1.419       .  A
C218       Br219   1.880       .  S
C223        C224   1.459       .  A
C223        C228   1.427       .  A
C223       Br230   1.852       .  S
C224        C225   1.459       .  A
C225        C226   1.476       .  A
C225       Br232   1.942       .  S
C226        C227   1.458       .  A
C226       Br231   1.937       .  S
C227        C228   1.375       .  A
C228       Br229   1.877       .  S
C233        C234   1.441       .  A
C233        C238   1.457       .  A
C233       Br552   1.867       .  S
C234        C235   1.468       .  A
C235        C236   1.401       .  A
C235       Br242   1.938       .  S
C236        C237   1.412       .  A
C236       Br241   1.901       .  S
C237        C238   1.405       .  A
C238       Br551   1.892       .  S
Br239       C550   1.892   1_545  S
Br240       C545   1.867   1_545  S
C243        C244   1.433       .  A
C243        C248   1.461       .  A
C243       Br250   1.946       .  S
C244        C245   1.392       .  A
C245        C246   1.422       .  A
C245       Br252   1.874       .  S
C246        C247   1.463       .  A
C246       Br251   1.875       .  S
C247        C248   1.478       .  A
C248       Br249   1.918       .  S
C253        C254   1.440       .  A
C253        C258   1.431       .  A
C253       Br260   1.890       .  S
C254        C255   1.429       .  A
C255        C256   1.449       .  A
C255       Br262   1.879       .  S
C256        C257   1.458       .  A
C256       Br261   1.945       .  S
C257        C258   1.418       .  A
C258       Br259   1.885       .  S
C263        C264   1.451       .  A
C263        C268   1.459       .  A
C263       Br270   1.867       .  S
C264        C265   1.473       .  A
C265        C266   1.393       .  A
C265       Br272   1.904       .  S
C266        C267   1.403       .  A
C266       Br271   1.909       .  S
C267        C268   1.390       .  A
C268       Br269   1.848       .  S
C273        C274   1.495       .  A
C273        C278   1.478       .  A
C273       Br280   1.950       .  S
C274        C275   1.400       .  A
C275        C276   1.429       .  A
C275       Br282   1.806       .  S
C276        C277   1.379       .  A
C276       Br281   1.919       .  S
C277        C278   1.456       .  A
C278       Br279   1.931       .  S
C283        C284   1.418       .  A
C283        C288   1.459       .  A
C283       Br290   1.887       .  S
C284        C285   1.448       .  A
C285        C286   1.463       .  A
C285       Br292   1.926       .  S
C286        C287   1.453       .  A
C286       Br291   1.906       .  S
C287        C288   1.461       .  A
C288       Br289   1.916       .  S
C293        C294   1.400       .  A
C293        C298   1.453       .  A
C293       Br300   1.890       .  S
C294        C295   1.465       .  A
C295        C296   1.484       .  A
C295       Br302   1.915       .  S
C296        C297   1.462       .  A
C296       Br301   1.933       .  S
C297        C298   1.417       .  A
C298       Br299   1.863       .  S
C303        C304   1.469       .  A
C303        C308   1.479       .  A
C303       Br310   1.921       .  S
C304        C305   1.380       .  A
C305        C306   1.388       .  A
C305       Br312   1.790       .  S
C306        C307   1.427       .  A
C306       Br311   1.904       .  S
C307        C308   1.461       .  A
C308       Br309   1.932       .  S
C313        C348   1.624       .  S
C313        C440   1.694       .  S
C313        C453   1.712       .  S
C313        C460   1.677       .  S
C314        C332   1.673       .  S
C314        C420   1.681       .  S
C314        C430   1.697       .  S
C314        C450   1.688       .  S
C315        C333   1.659       .  S
C315        C400   1.631       .  S
C315        C410   1.665       .  S
C315        C463   1.679       .  S
C316        C345   1.640       .  S
C316        C390   1.663       .  S
C316        C413   1.676       .  S
C316        C433   1.611       .  S
C317        C346   1.647       .  S
C317        C373   1.665       .  S
C317        C380   1.724       .  S
C317        C443   1.710       .  S
C318        C334   1.657       .  S
C318        C360   1.670       .  S
C318        C370   1.655       .  S
C318        C423   1.637       .  S
C319        C331   1.683       .  S
C319        C350   1.703       .  S
C319        C383   1.662       .  S
C319        C403   1.702       .  S
C320        C347   1.634       .  S
C320        C353   1.713       .  S
C320        C363   1.658       .  S
C320        C393   1.645       .  S
O321        C331   1.281       .  A
O321        V485   1.995   1_554  S
O322        C332   1.280       .  A
O322        V953   1.971       .  S
O323        C333   1.282       .  A
O323        V329   1.996       .  S
O324        C334   1.283       .  A
O324       V1109   1.982   1_554  S
O325        C334   1.281       .  A
O325       V1110   1.982   1_454  S
O326        C333   1.280       .  A
O326        V330   1.978       .  S
O327        C332   1.289       .  A
O327        V954   2.026   1_455  S
O328        C331   1.282       .  A
O328        V486   1.984   1_554  S
V329        O477   1.998       .  S
V329        O946   1.971       .  S
V329       O1104   1.979       .  S
V329        V330   2.022       .  T
V330       O1105   1.978       .  S
V330        O951   2.026       .  S
V330        O484   1.982       .  S
O335        V343   1.960       .  S
O336        C346   1.280       .  A
O336        V499   1.988   1_554  S
O337        V499   1.972   1_554  S
O338        C348   1.265       .  A
O338        V343   1.964       .  S
O339        C348   1.287       .  A
O339        V344   1.967       .  S
O340        V500   1.956   1_554  S
O341        C346   1.276       .  A
O341        V500   1.994   1_554  S
O342        V344   1.983       .  S
V343        O492   1.983       .  S
V343        O493   1.977       .  S
V343        V344   1.994       .  T
V344        O496   1.962       .  S
V344        O497   1.995       .  S
C349        C350   1.478       .  A
C349        C354   1.496       .  A
C349       Br356   1.971       .  S
C350        C351   1.426       .  A
C351        C352   1.408       .  A
C351       Br358   1.779       .  S
C352        C353   1.409       .  A
C352       Br357   1.925       .  S
C353        C354   1.486       .  A
C354       Br355   1.942       .  S
C359        C360   1.427       .  A
C359        C364   1.453       .  A
C359       Br366   1.854   1_554  S
C360        C361   1.437       .  A
C361        C362   1.443       .  A
C361       Br368   1.918       .  S
C362        C363   1.460       .  A
C362       Br367   1.958       .  S
C363        C364   1.407       .  A
C364       Br365   1.940       .  S
C369        C370   1.426       .  A
C369        C374   1.431       .  A
C369       Br376   1.904       .  S
C370        C371   1.438       .  A
C371        C372   1.455       .  A
C371       Br378   1.947       .  S
C372        C373   1.471       .  A
C372       Br377   1.953       .  S
C373        C374   1.420       .  A
C374       Br375   1.886       .  S
C379        C380   1.459       .  A
C379        C384   1.425       .  A
C379       Br386   1.852       .  S
C380        C381   1.454       .  A
C381        C382   1.475       .  A
C381       Br388   1.938       .  S
C382        C383   1.460       .  A
C382       Br387   1.937       .  S
C383        C384   1.375       .  A
C384       Br385   1.875   1_554  S
C389        C390   1.439       .  A
C389        C394   1.455       .  A
C390        C391   1.469       .  A
C391        C392   1.402       .  A
C391       Br398   1.940       .  S
C392        C393   1.418       .  A
C392       Br397   1.911       .  S
C393        C394   1.402       .  A
C399        C400   1.435       .  A
C399        C404   1.461       .  A
C399       Br406   1.948       .  S
C400        C401   1.389       .  A
C401        C402   1.419       .  A
C401       Br408   1.871       .  S
C402        C403   1.460       .  A
C402       Br407   1.872       .  S
C403        C404   1.477       .  A
C404       Br405   1.921       .  S
C409        C410   1.439       .  A
C409        C414   1.431       .  A
C409       Br416   1.892       .  S
C410        C411   1.427       .  A
C411        C412   1.451       .  A
C411       Br418   1.874       .  S
C412        C413   1.457       .  A
C412       Br417   1.943       .  S
C413        C414   1.418       .  A
C414       Br415   1.880       .  S
C419        C420   1.449       .  A
C419        C424   1.461       .  A
C419       Br426   1.863       .  S
C420        C421   1.476       .  A
C421        C422   1.392       .  A
C421       Br428   1.909       .  S
C422        C423   1.400       .  A
C422       Br427   1.909       .  S
C423        C424   1.393       .  A
C424       Br425   1.850       .  S
C429        C430   1.496       .  A
C429        C434   1.478       .  A
C429       Br436   1.950       .  S
C430        C431   1.400       .  A
C431        C432   1.428       .  A
C431       Br438   1.803       .  S
C432        C433   1.378       .  A
C432       Br437   1.918       .  S
C433        C434   1.456       .  A
C434       Br435   1.933       .  S
C439        C440   1.419       .  A
C439        C444   1.460       .  A
C439       Br446   1.888       .  S
C440        C441   1.453       .  A
C441        C442   1.465       .  A
C441       Br448   1.926       .  S
C442        C443   1.453       .  A
C442       Br447   1.919       .  S
C443        C444   1.457       .  A
C444       Br445   1.911       .  S
C449        C450   1.399       .  A
C449        C454   1.453       .  A
C449       Br456   1.890       .  S
C450        C451   1.466       .  A
C451        C452   1.483       .  A
C451       Br458   1.912       .  S
C452        C453   1.459       .  A
C452       Br457   1.932       .  S
C453        C454   1.418       .  A
C454       Br455   1.862       .  S
C459        C460   1.467       .  A
C459        C464   1.481       .  A
C459       Br466   1.921       .  S
C460        C461   1.382       .  A
C461        C462   1.389       .  A
C461       Br468   1.799       .  S
C462        C463   1.427       .  A
C462       Br467   1.906       .  S
C463        C464   1.468       .  A
C464       Br465   1.937       .  S
C469        C504   1.617       .  S
C469        C596   1.689       .  S
C469        C609   1.714       .  S
C469        C616   1.679       .  S
C470        C488   1.671       .  S
C470        C576   1.680       .  S
C470        C586   1.698       .  S
C470        C606   1.687       .  S
C471        C489   1.662       .  S
C471        C556   1.631       .  S
C471        C566   1.665       .  S
C471        C619   1.672       .  S
C472        C501   1.641       .  S
C472        C546   1.662       .  S
C472        C569   1.676       .  S
C472        C589   1.612       .  S
C473        C502   1.644       .  S
C473        C529   1.663       .  S
C473        C536   1.730       .  S
C473        C599   1.712       .  S
C474        C490   1.652       .  S
C474        C516   1.668       .  S
C474        C526   1.652       .  S
C474        C579   1.637       .  S
C475        C487   1.680       .  S
C475        C506   1.698       .  S
C475        C539   1.664       .  S
C475        C559   1.702       .  S
C476        C503   1.634       .  S
C476        C509   1.711       .  S
C476        C519   1.658       .  S
C476        C549   1.640       .  S
O477        C487   1.282       .  A
O478        C488   1.277       .  A
O478       V1109   1.967       .  S
O479        C489   1.283       .  A
O479        V485   1.998       .  S
O480        C490   1.282       .  A
O480        V953   1.979       .  S
O481        C490   1.280       .  A
O481        V954   1.978   1_455  S
O482        C489   1.282       .  A
O482        V486   1.980       .  S
O483        C488   1.290       .  A
O483       V1110   2.026   1_455  S
O484        C487   1.281       .  A
V485       O1102   1.967       .  S
V485        O948   1.982   1_556  S
V485        V486   2.027       .  T
V486        O949   1.982   1_556  S
V486       O1107   2.026       .  S
O491        V499   1.956       .  S
O492        C502   1.279       .  A
O494        C504   1.265       .  A
O494        V499   1.962       .  S
O495        C504   1.284       .  A
O495        V500   1.963       .  S
O497        C502   1.276       .  A
O498        V500   1.989       .  S
V499        V500   2.000       .  T
C505        C506   1.477       .  A
C505        C510   1.491       .  A
C505       Br512   1.971       .  S
C506        C507   1.424       .  A
C507        C508   1.405       .  A
C507       Br514   1.776       .  S
C508        C509   1.413       .  A
C508       Br513   1.923       .  S
C509        C510   1.484       .  A
C510       Br511   1.932       .  S
C515        C516   1.425       .  A
C515        C520   1.451       .  A
C515       Br522   1.855       .  S
C516        C517   1.438       .  A
C517        C518   1.443       .  A
C517       Br524   1.920       .  S
C518        C519   1.461       .  A
C518       Br523   1.958       .  S
C519        C520   1.409       .  A
C520       Br521   1.938       .  S
C525        C526   1.425       .  A
C525        C530   1.428       .  A
C525       Br532   1.909       .  S
C526        C527   1.440       .  A
C527        C528   1.456       .  A
C527       Br534   1.952       .  S
C528        C529   1.472       .  A
C528       Br533   1.956       .  S
C529        C530   1.419       .  A
C530       Br531   1.882       .  S
C535        C536   1.461       .  A
C535        C540   1.428       .  A
C535       Br542   1.854       .  S
C536        C537   1.458       .  A
C537        C538   1.476       .  A
C537       Br544   1.940       .  S
C538        C539   1.458       .  A
C538       Br543   1.937       .  S
C539        C540   1.376       .  A
C540       Br541   1.878       .  S
C545        C546   1.441       .  A
C545        C550   1.457       .  A
C546        C547   1.467       .  A
C547        C548   1.401       .  A
C547       Br554   1.939       .  S
C548        C549   1.414       .  A
C548       Br553   1.901       .  S
C549        C550   1.405       .  A
C555        C556   1.433       .  A
C555        C560   1.461       .  A
C555       Br562   1.946       .  S
C556        C557   1.392       .  A
C557        C558   1.422       .  A
C557       Br564   1.873       .  S
C558        C559   1.462       .  A
C558       Br563   1.875       .  S
C559        C560   1.477       .  A
C560       Br561   1.919       .  S
C565        C566   1.440       .  A
C565        C570   1.431       .  A
C565       Br572   1.892       .  S
C566        C567   1.429       .  A
C567        C568   1.449       .  A
C567       Br574   1.879       .  S
C568        C569   1.458       .  A
C568       Br573   1.945       .  S
C569        C570   1.418       .  A
C570       Br571   1.884       .  S
C575        C576   1.449       .  A
C575        C580   1.460       .  A
C575       Br582   1.869       .  S
C576        C577   1.473       .  A
C577        C578   1.392       .  A
C577       Br584   1.905       .  S
C578        C579   1.401       .  A
C578       Br583   1.909       .  S
C579        C580   1.392       .  A
C580       Br581   1.848       .  S
C585        C586   1.495       .  A
C585        C590   1.478       .  A
C585       Br592   1.949       .  S
C586        C587   1.400       .  A
C587        C588   1.429       .  A
C587       Br594   1.804       .  S
C588        C589   1.378       .  A
C588       Br593   1.917       .  S
C589        C590   1.455       .  A
C590       Br591   1.932       .  S
C595        C596   1.417       .  A
C595        C600   1.458       .  A
C595       Br602   1.888       .  S
C596        C597   1.450       .  A
C597        C598   1.464       .  A
C597       Br604   1.927       .  S
C598        C599   1.452       .  A
C598       Br603   1.907       .  S
C599        C600   1.462       .  A
C600       Br601   1.916       .  S
C605        C606   1.400       .  A
C605        C610   1.453       .  A
C605       Br612   1.889       .  S
C606        C607   1.465       .  A
C607        C608   1.484       .  A
C607       Br614   1.915       .  S
C608        C609   1.462       .  A
C608       Br613   1.933       .  S
C609        C610   1.417       .  A
C610       Br611   1.864       .  S
C615        C616   1.469       .  A
C615        C620   1.479       .  A
C615       Br622   1.923       .  S
C616        C617   1.380       .  A
C617        C618   1.388       .  A
C617       Br624   1.794       .  S
C618        C619   1.426       .  A
C618       Br623   1.904       .  S
C619        C620   1.462       .  A
C620       Br621   1.933       .  S
C625        C660   1.626       .  S
C625        C752   1.692       .  S
C625        C765   1.709       .  S
C625        C772   1.676       .  S
C626        C644   1.674       .  S
C626        C732   1.681       .  S
C626        C742   1.697       .  S
C626        C762   1.688       .  S
C627        C645   1.660       .  S
C627        C712   1.628       .  S
C627        C722   1.663       .  S
C627        C775   1.677       .  S
C628        C657   1.640       .  S
C628        C702   1.663       .  S
C628        C725   1.674       .  S
C628        C745   1.611       .  S
C629        C658   1.648       .  S
C629        C685   1.667       .  S
C629        C692   1.723       .  S
C629        C755   1.709       .  S
C630        C646   1.657       .  S
C630        C672   1.668       .  S
C630        C682   1.657       .  S
C630        C735   1.634       .  S
C631        C643   1.682       .  S
C631        C662   1.703       .  S
C631        C695   1.663       .  S
C631        C715   1.701       .  S
C632        C659   1.632       .  S
C632        C665   1.714       .  S
C632        C675   1.656       .  S
C632        C705   1.646       .  S
O633        C643   1.281       .  A
O633        V797   1.995   1_654  S
O634        C644   1.279       .  A
O635        C645   1.282       .  A
O635        V641   1.996   1_655  S
O636        C646   1.283       .  A
O637        C646   1.281       .  A
O638        C645   1.281       .  A
O638        V642   1.978       .  S
O639        C644   1.289       .  A
O640        C643   1.282       .  A
O640        V798   1.984   1_554  S
V641        O789   1.998   1_455  S
V641        V642   2.023   1_455  T
V642        O796   1.983       .  S
O647        C969   1.278       .  A
O647        V655   1.960   1_565  S
O648        C658   1.280       .  A
O648        V811   1.988   1_554  S
O649        C971   1.269       .  A
O649        V811   1.973   1_564  S
O650        C660   1.266       .  A
O650        V655   1.966       .  S
O651        C660   1.287       .  A
O651        V656   1.969       .  S
O652        C971   1.269       .  A
O652        V812   1.957   1_564  S
O653        C658   1.275       .  A
O653        V812   1.993   1_554  S
O654        C969   1.281       .  A
O654        V656   1.984   1_565  S
V655        O804   1.983       .  S
V655        O805   1.977       .  S
V655        V656   1.995       .  T
V656        O808   1.962   1_545  S
V656        O809   1.995       .  S
C657        O959   1.279       .  A
C657        O966   1.281       .  A
C659        O961   1.268       .  A
C659        O964   1.269       .  A
C661        C662   1.478       .  A
C661        C666   1.496       .  A
C661       Br668   1.972       .  S
C662        C663   1.426       .  A
C663        C664   1.408       .  A
C663       Br670   1.779       .  S
C664        C665   1.410       .  A
C664       Br669   1.924       .  S
C665        C666   1.486       .  A
C666       Br667   1.941       .  S
C671        C672   1.426       .  A
C671        C676   1.451       .  A
C671       Br678   1.855   1_554  S
C672        C673   1.438       .  A
C673        C674   1.443       .  A
C673       Br680   1.918       .  S
C674        C675   1.460       .  A
C674       Br679   1.960       .  S
C675        C676   1.406       .  A
C676       Br677   1.939       .  S
C681        C682   1.426       .  A
C681        C686   1.432       .  A
C681       Br688   1.902       .  S
C682        C683   1.437       .  A
C683        C684   1.455       .  A
C683       Br690   1.945       .  S
C684        C685   1.472       .  A
C684       Br689   1.954       .  S
C685        C686   1.420       .  A
C686       Br687   1.888       .  S
C691        C692   1.459       .  A
C691        C696   1.425       .  A
C691       Br698   1.852       .  S
C692        C693   1.453       .  A
C693        C694   1.475       .  A
C693       Br700   1.939       .  S
C694        C695   1.460       .  A
C694       Br699   1.934       .  S
C695        C696   1.375       .  A
C696       Br697   1.876   1_554  S
C701        C702   1.440       .  A
C701        C706   1.456       .  A
C701      Br1020   1.870       .  S
C702        C703   1.469       .  A
C703        C704   1.402       .  A
C703       Br710   1.940       .  S
C704        C705   1.418       .  A
C704       Br709   1.910       .  S
C705        C706   1.402       .  A
C706      Br1019   1.881       .  S
Br707      C1018   1.880   1_545  S
Br708      C1013   1.869   1_545  S
C711        C712   1.434       .  A
C711        C716   1.460       .  A
C711       Br718   1.947       .  S
C712        C713   1.386       .  A
C713        C714   1.419       .  A
C713       Br720   1.870       .  S
C714        C715   1.461       .  A
C714       Br719   1.872       .  S
C715        C716   1.477       .  A
C716       Br717   1.922       .  S
C721        C722   1.439       .  A
C721        C726   1.431       .  A
C721       Br728   1.895       .  S
C722        C723   1.425       .  A
C723        C724   1.449       .  A
C723       Br730   1.872       .  S
C724        C725   1.455       .  A
C724       Br729   1.942       .  S
C725        C726   1.418       .  A
C726       Br727   1.880       .  S
C731        C732   1.449       .  A
C731        C736   1.461       .  A
C731       Br738   1.866       .  S
C732        C733   1.477       .  A
C733        C734   1.391       .  A
C733       Br740   1.911       .  S
C734        C735   1.398       .  A
C734       Br739   1.908       .  S
C735        C736   1.394       .  A
C736       Br737   1.851       .  S
C741        C742   1.496       .  A
C741        C746   1.478       .  A
C741       Br748   1.950       .  S
C742        C743   1.400       .  A
C743        C744   1.428       .  A
C743       Br750   1.802       .  S
C744        C745   1.379       .  A
C744       Br749   1.917       .  S
C745        C746   1.456       .  A
C746       Br747   1.933       .  S
C751        C752   1.419       .  A
C751        C756   1.459       .  A
C751       Br758   1.888       .  S
C752        C753   1.452       .  A
C753        C754   1.465       .  A
C753       Br760   1.928       .  S
C754        C755   1.455       .  A
C754       Br759   1.920       .  S
C755        C756   1.455       .  A
C756       Br757   1.909       .  S
C761        C762   1.399       .  A
C761        C766   1.453       .  A
C761       Br768   1.891       .  S
C762        C763   1.466       .  A
C763        C764   1.483       .  A
C763       Br770   1.913       .  S
C764        C765   1.457       .  A
C764       Br769   1.930       .  S
C765        C766   1.417       .  A
C766       Br767   1.861       .  S
C771        C772   1.466       .  A
C771        C776   1.479       .  A
C771       Br778   1.916       .  S
C772        C773   1.383       .  A
C773        C774   1.389       .  A
C773       Br780   1.803       .  S
C774        C775   1.427       .  A
C774       Br779   1.904       .  S
C775        C776   1.466       .  A
C776       Br777   1.937       .  S
C781        C816   1.619       .  S
C781        C908   1.689       .  S
C781        C921   1.715       .  S
C781        C928   1.681       .  S
C782        C800   1.670       .  S
C782        C888   1.681       .  S
C782        C898   1.696       .  S
C782        C918   1.688       .  S
C783        C801   1.661       .  S
C783        C868   1.632       .  S
C783        C878   1.665       .  S
C783        C931   1.671       .  S
C784        C813   1.642       .  S
C784        C858   1.663       .  S
C784        C881   1.676       .  S
C784        C901   1.613       .  S
C785        C814   1.643       .  S
C785        C841   1.664       .  S
C785        C848   1.729       .  S
C785        C911   1.713       .  S
C786        C802   1.652       .  S
C786        C828   1.669       .  S
C786        C838   1.650       .  S
C786        C891   1.637       .  S
C787        C799   1.681       .  S
C787        C818   1.697       .  S
C787        C851   1.663       .  S
C787        C871   1.703       .  S
C788        C815   1.634       .  S
C788        C821   1.710       .  S
C788        C831   1.659       .  S
C788        C861   1.639       .  S
O789        C799   1.282       .  A
O790        C800   1.277       .  A
O791        C801   1.282       .  A
O791        V797   1.997   1_655  S
O792        C802   1.282       .  A
O793        C802   1.280       .  A
O794        C801   1.283       .  A
O794        V798   1.981       .  S
O795        C800   1.290       .  A
O796        C799   1.281       .  A
V797        V798   2.027   1_455  T
O803       C1125   1.275       .  A
O803        V811   1.954   1_565  S
O804        C814   1.279       .  A
O805       C1127   1.268   1_545  A
O806        C816   1.266       .  A
O806        V811   1.964       .  S
O807        C816   1.284       .  A
O807        V812   1.963       .  S
O808       C1127   1.272       .  A
O809        C814   1.276       .  A
O810       C1125   1.283       .  A
O810        V812   1.990   1_565  S
V811        V812   2.002       .  T
C813       O1115   1.277       .  A
C813       O1122   1.282       .  A
C815       O1117   1.268       .  A
C815       O1120   1.272       .  A
C817        C818   1.476       .  A
C817        C822   1.491       .  A
C817       Br824   1.971       .  S
C818        C819   1.424       .  A
C819        C820   1.406       .  A
C819       Br826   1.777       .  S
C820        C821   1.413       .  A
C820       Br825   1.923       .  S
C821        C822   1.483       .  A
C822       Br823   1.931       .  S
C827        C828   1.425       .  A
C827        C832   1.451       .  A
C827       Br834   1.856       .  S
C828        C829   1.438       .  A
C829        C830   1.444       .  A
C829       Br836   1.920       .  S
C830        C831   1.461       .  A
C830       Br835   1.957       .  S
C831        C832   1.410       .  A
C832       Br833   1.938       .  S
C837        C838   1.425       .  A
C837        C842   1.428       .  A
C837       Br844   1.913       .  S
C838        C839   1.440       .  A
C839        C840   1.456       .  A
C839       Br846   1.953       .  S
C840        C841   1.473       .  A
C840       Br845   1.957       .  S
C841        C842   1.419       .  A
C842       Br843   1.880       .  S
C847        C848   1.460       .  A
C847        C852   1.427       .  A
C847       Br854   1.853       .  S
C848        C849   1.459       .  A
C849        C850   1.476       .  A
C849       Br856   1.942       .  S
C850        C851   1.458       .  A
C850       Br855   1.937       .  S
C851        C852   1.375       .  A
C852       Br853   1.878       .  S
C857        C858   1.441       .  A
C857        C862   1.457       .  A
C857      Br1176   1.867       .  S
C858        C859   1.468       .  A
C859        C860   1.401       .  A
C859       Br866   1.938       .  S
C860        C861   1.412       .  A
C860       Br865   1.900       .  S
C861        C862   1.405       .  A
C862      Br1175   1.892       .  S
Br863      C1174   1.892   1_545  S
Br864      C1169   1.868   1_545  S
C867        C868   1.433       .  A
C867        C872   1.461       .  A
C867       Br874   1.946       .  S
C868        C869   1.392       .  A
C869        C870   1.422       .  A
C869       Br876   1.874       .  S
C870        C871   1.463       .  A
C870       Br875   1.875       .  S
C871        C872   1.478       .  A
C872       Br873   1.918       .  S
C877        C878   1.440       .  A
C877        C882   1.431       .  A
C877       Br884   1.890       .  S
C878        C879   1.429       .  A
C879        C880   1.449       .  A
C879       Br886   1.879       .  S
C880        C881   1.458       .  A
C880       Br885   1.945       .  S
C881        C882   1.418       .  A
C882       Br883   1.885       .  S
C887        C888   1.451       .  A
C887        C892   1.459       .  A
C887       Br894   1.867       .  S
C888        C889   1.473       .  A
C889        C890   1.393       .  A
C889       Br896   1.904       .  S
C890        C891   1.403       .  A
C890       Br895   1.909       .  S
C891        C892   1.390       .  A
C892       Br893   1.848       .  S
C897        C898   1.495       .  A
C897        C902   1.478       .  A
C897       Br904   1.950       .  S
C898        C899   1.400       .  A
C899        C900   1.429       .  A
C899       Br906   1.806       .  S
C900        C901   1.379       .  A
C900       Br905   1.919       .  S
C901        C902   1.456       .  A
C902       Br903   1.931       .  S
C907        C908   1.418       .  A
C907        C912   1.459       .  A
C907       Br914   1.887       .  S
C908        C909   1.448       .  A
C909        C910   1.463       .  A
C909       Br916   1.926       .  S
C910        C911   1.453       .  A
C910       Br915   1.906       .  S
C911        C912   1.461       .  A
C912       Br913   1.916       .  S
C917        C918   1.400       .  A
C917        C922   1.453       .  A
C917       Br924   1.891       .  S
C918        C919   1.465       .  A
C919        C920   1.484       .  A
C919       Br926   1.915       .  S
C920        C921   1.462       .  A
C920       Br925   1.933       .  S
C921        C922   1.417       .  A
C922       Br923   1.863       .  S
C927        C928   1.469       .  A
C927        C932   1.479       .  A
C927       Br934   1.921       .  S
C928        C929   1.380       .  A
C929        C930   1.388       .  A
C929       Br936   1.790       .  S
C930        C931   1.427       .  A
C930       Br935   1.904       .  S
C931        C932   1.461       .  A
C932       Br933   1.932       .  S
C937        C972   1.624       .  S
C937       C1064   1.693       .  S
C937       C1077   1.711       .  S
C937       C1084   1.677       .  S
C938        C956   1.673       .  S
C938       C1044   1.682       .  S
C938       C1054   1.697       .  S
C938       C1074   1.688       .  S
C939        C957   1.659       .  S
C939       C1024   1.631       .  S
C939       C1034   1.665       .  S
C939       C1087   1.679       .  S
C940        C969   1.640       .  S
C940       C1014   1.663       .  S
C940       C1037   1.676       .  S
C940       C1057   1.611       .  S
C941        C970   1.647       .  S
C941        C997   1.665       .  S
C941       C1004   1.724       .  S
C941       C1067   1.709       .  S
C942        C958   1.657       .  S
C942        C984   1.670       .  S
C942        C994   1.655       .  S
C942       C1047   1.637       .  S
C943        C955   1.683       .  S
C943        C974   1.703       .  S
C943       C1007   1.662       .  S
C943       C1027   1.702       .  S
C944        C971   1.634       .  S
C944        C977   1.713       .  S
C944        C987   1.658       .  S
C944       C1017   1.645       .  S
O945        C955   1.281       .  A
O945       V1109   1.996   1_654  S
O946        C956   1.280       .  A
O947        C957   1.282       .  A
O947        V953   1.996   1_655  S
O948        C958   1.283       .  A
O949        C958   1.281       .  A
O950        C957   1.280       .  A
O950        V954   1.977       .  S
O951        C956   1.289       .  A
O952        C955   1.282       .  A
O952       V1110   1.984   1_554  S
V953       O1101   1.998   1_455  S
V953        V954   2.022   1_455  T
V954       O1108   1.982       .  S
O959        V967   1.960       .  S
O960        C970   1.280       .  A
O960       V1123   1.988   1_554  S
O961       V1123   1.972   1_554  S
O962        C972   1.265       .  A
O962        V967   1.965       .  S
O963        C972   1.287       .  A
O963        V968   1.967       .  S
O964       V1124   1.956   1_554  S
O965        C970   1.275       .  A
O965       V1124   1.994   1_554  S
O966        V968   1.983       .  S
V967       O1116   1.984       .  S
V967       O1117   1.977       .  S
V967        V968   1.994       .  T
V968       O1120   1.962       .  S
V968       O1121   1.995       .  S
C973        C974   1.478       .  A
C973        C978   1.496       .  A
C973       Br980   1.971       .  S
C974        C975   1.426       .  A
C975        C976   1.409       .  A
C975       Br982   1.779       .  S
C976        C977   1.409       .  A
C976       Br981   1.925       .  S
C977        C978   1.486       .  A
C978       Br979   1.941       .  S
C983        C984   1.427       .  A
C983        C988   1.453       .  A
C983       Br990   1.854   1_554  S
C984        C985   1.437       .  A
C985        C986   1.443       .  A
C985       Br992   1.918       .  S
C986        C987   1.460       .  A
C986       Br991   1.958       .  S
C987        C988   1.407       .  A
C988       Br989   1.940       .  S
C993        C994   1.426       .  A
C993        C998   1.431       .  A
C993      Br1000   1.904       .  S
C994        C995   1.438       .  A
C995        C996   1.455       .  A
C995      Br1002   1.947       .  S
C996        C997   1.471       .  A
C996      Br1001   1.953       .  S
C997        C998   1.420       .  A
C998       Br999   1.886       .  S
C1003      C1004   1.459       .  A
C1003      C1008   1.425       .  A
C1003     Br1010   1.852       .  S
C1004      C1005   1.454       .  A
C1005      C1006   1.475       .  A
C1005     Br1012   1.938       .  S
C1006      C1007   1.460       .  A
C1006     Br1011   1.937       .  S
C1007      C1008   1.375       .  A
C1008     Br1009   1.875   1_554  S
C1013      C1014   1.439       .  A
C1013      C1018   1.455       .  A
C1014      C1015   1.469       .  A
C1015      C1016   1.402       .  A
C1015     Br1022   1.940       .  S
C1016      C1017   1.418       .  A
C1016     Br1021   1.911       .  S
C1017      C1018   1.402       .  A
C1023      C1024   1.435       .  A
C1023      C1028   1.461       .  A
C1023     Br1030   1.948       .  S
C1024      C1025   1.389       .  A
C1025      C1026   1.419       .  A
C1025     Br1032   1.871       .  S
C1026      C1027   1.461       .  A
C1026     Br1031   1.872       .  S
C1027      C1028   1.477       .  A
C1028     Br1029   1.921       .  S
C1033      C1034   1.439       .  A
C1033      C1038   1.431       .  A
C1033     Br1040   1.892       .  S
C1034      C1035   1.427       .  A
C1035      C1036   1.451       .  A
C1035     Br1042   1.874       .  S
C1036      C1037   1.457       .  A
C1036     Br1041   1.943       .  S
C1037      C1038   1.418       .  A
C1038     Br1039   1.880       .  S
C1043      C1044   1.449       .  A
C1043      C1048   1.461       .  A
C1043     Br1050   1.863       .  S
C1044      C1045   1.476       .  A
C1045      C1046   1.392       .  A
C1045     Br1052   1.909       .  S
C1046      C1047   1.400       .  A
C1046     Br1051   1.909       .  S
C1047      C1048   1.393       .  A
C1048     Br1049   1.850       .  S
C1053      C1054   1.496       .  A
C1053      C1058   1.478       .  A
C1053     Br1060   1.950       .  S
C1054      C1055   1.400       .  A
C1055      C1056   1.428       .  A
C1055     Br1062   1.803       .  S
C1056      C1057   1.378       .  A
C1056     Br1061   1.919       .  S
C1057      C1058   1.456       .  A
C1058     Br1059   1.933       .  S
C1063      C1064   1.419       .  A
C1063      C1068   1.460       .  A
C1063     Br1070   1.888       .  S
C1064      C1065   1.453       .  A
C1065      C1066   1.465       .  A
C1065     Br1072   1.926       .  S
C1066      C1067   1.453       .  A
C1066     Br1071   1.919       .  S
C1067      C1068   1.457       .  A
C1068     Br1069   1.911       .  S
C1073      C1074   1.400       .  A
C1073      C1078   1.453       .  A
C1073     Br1080   1.890       .  S
C1074      C1075   1.465       .  A
C1075      C1076   1.483       .  A
C1075     Br1082   1.912       .  S
C1076      C1077   1.459       .  A
C1076     Br1081   1.932       .  S
C1077      C1078   1.418       .  A
C1078     Br1079   1.862       .  S
C1083      C1084   1.467       .  A
C1083      C1088   1.481       .  A
C1083     Br1090   1.920       .  S
C1084      C1085   1.382       .  A
C1085      C1086   1.389       .  A
C1085     Br1092   1.799       .  S
C1086      C1087   1.427       .  A
C1086     Br1091   1.906       .  S
C1087      C1088   1.468       .  A
C1088     Br1089   1.937       .  S
C1093      C1128   1.617       .  S
C1093      C1220   1.689       .  S
C1093      C1233   1.714       .  S
C1093      C1240   1.679       .  S
C1094      C1112   1.671       .  S
C1094      C1200   1.679       .  S
C1094      C1210   1.698       .  S
C1094      C1230   1.687       .  S
C1095      C1113   1.661       .  S
C1095      C1180   1.631       .  S
C1095      C1190   1.665       .  S
C1095      C1243   1.672       .  S
C1096      C1125   1.641       .  S
C1096      C1170   1.662       .  S
C1096      C1193   1.676       .  S
C1096      C1213   1.612       .  S
C1097      C1126   1.644       .  S
C1097      C1153   1.663       .  S
C1097      C1160   1.730       .  S
C1097      C1223   1.712       .  S
C1098      C1114   1.652       .  S
C1098      C1140   1.668       .  S
C1098      C1150   1.652       .  S
C1098      C1203   1.637       .  S
C1099      C1111   1.680       .  S
C1099      C1130   1.698       .  S
C1099      C1163   1.664       .  S
C1099      C1183   1.702       .  S
C1100      C1127   1.634       .  S
C1100      C1133   1.711       .  S
C1100      C1143   1.658       .  S
C1100      C1173   1.640       .  S
O1101      C1111   1.282       .  A
O1102      C1112   1.277       .  A
O1103      C1113   1.283       .  A
O1103      V1109   1.998   1_655  S
O1104      C1114   1.282       .  A
O1105      C1114   1.280       .  A
O1106      C1113   1.282       .  A
O1106      V1110   1.980       .  S
O1107      C1112   1.290       .  A
O1108      C1111   1.281       .  A
V1109      V1110   2.027   1_455  T
O1115      V1123   1.956       .  S
O1116      C1126   1.279       .  A
O1118      C1128   1.265       .  A
O1118      V1123   1.963       .  S
O1119      C1128   1.284       .  A
O1119      V1124   1.963       .  S
O1121      C1126   1.276       .  A
O1122      V1124   1.989       .  S
V1123      V1124   2.000       .  T
C1129      C1130   1.477       .  A
C1129      C1134   1.491       .  A
C1129     Br1136   1.971       .  S
C1130      C1131   1.424       .  A
C1131      C1132   1.405       .  A
C1131     Br1138   1.776       .  S
C1132      C1133   1.413       .  A
C1132     Br1137   1.923       .  S
C1133      C1134   1.484       .  A
C1134     Br1135   1.932       .  S
C1139      C1140   1.425       .  A
C1139      C1144   1.451       .  A
C1139     Br1146   1.855       .  S
C1140      C1141   1.438       .  A
C1141      C1142   1.443       .  A
C1141     Br1148   1.920       .  S
C1142      C1143   1.461       .  A
C1142     Br1147   1.957       .  S
C1143      C1144   1.409       .  A
C1144     Br1145   1.938       .  S
C1149      C1150   1.425       .  A
C1149      C1154   1.428       .  A
C1149     Br1156   1.909       .  S
C1150      C1151   1.440       .  A
C1151      C1152   1.456       .  A
C1151     Br1158   1.952       .  S
C1152      C1153   1.472       .  A
C1152     Br1157   1.956       .  S
C1153      C1154   1.419       .  A
C1154     Br1155   1.882       .  S
C1159      C1160   1.461       .  A
C1159      C1164   1.428       .  A
C1159     Br1166   1.854       .  S
C1160      C1161   1.458       .  A
C1161      C1162   1.476       .  A
C1161     Br1168   1.940       .  S
C1162      C1163   1.458       .  A
C1162     Br1167   1.937       .  S
C1163      C1164   1.376       .  A
C1164     Br1165   1.879       .  S
C1169      C1170   1.441       .  A
C1169      C1174   1.457       .  A
C1170      C1171   1.467       .  A
C1171      C1172   1.400       .  A
C1171     Br1178   1.939       .  S
C1172      C1173   1.414       .  A
C1172     Br1177   1.901       .  S
C1173      C1174   1.405       .  A
C1179      C1180   1.433       .  A
C1179      C1184   1.461       .  A
C1179     Br1186   1.946       .  S
C1180      C1181   1.392       .  A
C1181      C1182   1.422       .  A
C1181     Br1188   1.873       .  S
C1182      C1183   1.462       .  A
C1182     Br1187   1.875       .  S
C1183      C1184   1.477       .  A
C1184     Br1185   1.919       .  S
C1189      C1190   1.440       .  A
C1189      C1194   1.431       .  A
C1189     Br1196   1.893       .  S
C1190      C1191   1.429       .  A
C1191      C1192   1.449       .  A
C1191     Br1198   1.878       .  S
C1192      C1193   1.458       .  A
C1192     Br1197   1.945       .  S
C1193      C1194   1.418       .  A
C1194     Br1195   1.884       .  S
C1199      C1200   1.449       .  A
C1199      C1204   1.460       .  A
C1199     Br1206   1.869       .  S
C1200      C1201   1.473       .  A
C1201      C1202   1.392       .  A
C1201     Br1208   1.905       .  S
C1202      C1203   1.401       .  A
C1202     Br1207   1.909       .  S
C1203      C1204   1.392       .  A
C1204     Br1205   1.848       .  S
C1209      C1210   1.495       .  A
C1209      C1214   1.477       .  A
C1209     Br1216   1.949       .  S
C1210      C1211   1.400       .  A
C1211      C1212   1.429       .  A
C1211     Br1218   1.804       .  S
C1212      C1213   1.378       .  A
C1212     Br1217   1.917       .  S
C1213      C1214   1.455       .  A
C1214     Br1215   1.932       .  S
C1219      C1220   1.417       .  A
C1219      C1224   1.458       .  A
C1219     Br1226   1.888       .  S
C1220      C1221   1.450       .  A
C1221      C1222   1.464       .  A
C1221     Br1228   1.927       .  S
C1222      C1223   1.453       .  A
C1222     Br1227   1.907       .  S
C1223      C1224   1.462       .  A
C1224     Br1225   1.916       .  S
C1229      C1230   1.400       .  A
C1229      C1234   1.453       .  A
C1229     Br1236   1.889       .  S
C1230      C1231   1.465       .  A
C1231      C1232   1.484       .  A
C1231     Br1238   1.915       .  S
C1232      C1233   1.462       .  A
C1232     Br1237   1.933       .  S
C1233      C1234   1.417       .  A
C1234     Br1235   1.864       .  S
C1239      C1240   1.468       .  A
C1239      C1244   1.479       .  A
C1239     Br1246   1.923       .  S
C1240      C1241   1.380       .  A
C1241      C1242   1.388       .  A
C1241     Br1248   1.794       .  S
C1242      C1243   1.426       .  A
C1242     Br1247   1.904       .  S
C1243      C1244   1.462       .  A
C1244     Br1245   1.933       .  S
