geometry optimzed in LAMMPS
_audit_creation_date              2020-11-30 
_audit_creation_method            'lammps2cif' 
_symmetry_space_group_name_H-M    'P1' 
_symmetry_Int_Tables_number       1 
_symmetry_cell_setting            triclinic 
loop_ 
_symmetry_equiv_pos_as_xyz 
  x,y,z 
_cell_length_a                    41.63803976 
_cell_length_b                    41.652232131666494 
_cell_length_c                    31.44933088145905 
_cell_angle_alpha                 89.99223626549711 
_cell_angle_beta                  89.98079971166442 
_cell_angle_gamma                 120.57296123292724 
loop_ 
_atom_site_label 
_atom_site_type_symbol 
_atom_site_fract_x 
_atom_site_fract_y 
_atom_site_fract_z 
_atom_site_charge 
C1          C  0.16765512  0.34284369  0.07826361     0.49500
H2          H  0.16861425  0.34220226  0.04300689     0.00500
C3          C  0.16613038  0.34301784  0.16075871     0.49600
H4          H  0.16555096  0.34321647  0.19606793     0.00500
C5          C  0.18756821  0.38361226  0.09619584    -0.13200
C6          C  0.12647979  0.32187606  0.09580128    -0.12900
C7          C  0.18794549  0.32355999  0.09929836    -0.13300
C8          C  0.18804954  0.38396517  0.14113448    -0.13300
C9          C  0.12559826  0.32106101  0.14073968    -0.12800
C10         C  0.18638422  0.32304585  0.14359054    -0.13200
C11         C  0.02046328  0.11893509  0.38556846     0.06400
C12         C  0.02987136  0.11316132  0.34432169     0.06300
C13         C  0.06573327  0.11901618  0.33797572    -0.14200
C14         C  0.08996349  0.13031471  0.37267686     0.06400
C15         C  0.07427081  0.12110892  0.41383117     0.06300
C16         C  0.03710051  0.11129001  0.41941010    -0.14200
H17         H  0.02737445  0.11137251  0.45145622     0.08400
H18         H  0.07705896  0.12384948  0.30597152     0.08400
C19         C  0.05994673  0.39053929  0.30335708     0.06400
C20         C  0.07193132  0.37824654  0.26792767     0.06300
C21         C  0.10183155  0.40434136  0.24376885    -0.14200
C22         C  0.12734211  0.43680078  0.26492977     0.06400
C23         C  0.11544320  0.44855815  0.30113093     0.06300
C24         C  0.07785670  0.42853895  0.31192619    -0.14200
H25         H  0.06890126  0.43746672  0.33970022     0.08400
H26         H  0.11170532  0.39440936  0.21780377     0.08400
C27         C  0.42348013  0.38801914  0.11282471     0.06400
C28         C  0.41073983  0.37789114  0.15498141     0.06300
C29         C  0.43710574  0.38748363  0.18690435    -0.14200
C30         C  0.47064702  0.38960946  0.17576724     0.06400
C31         C  0.47901830  0.38937743  0.13214899     0.06300
C32         C  0.46041725  0.39933242  0.10302372    -0.14200
H33         H  0.46820331  0.40166575  0.06968255     0.08400
H34         H  0.42746810  0.38110002  0.21964471     0.08400
Zn35       Zn  0.47092345  0.21087806  0.45444755     1.49700
Zn36       Zn  0.50200398  0.24940398  0.05348868     1.49400
Zn37       Zn  0.05310412  0.28446214  0.47310665     1.49100
Zn38       Zn  0.46619599  0.27497665  0.47590821     1.49500
O39         O  0.49723892  0.25534294  0.99294087    -1.80000
O40         O  0.46907755  0.17175670  0.99039413    -0.70700
O41         O  0.05953788  0.28332276  0.08034884    -0.70500
O42         O  0.05440869  0.23921806  0.44552931    -0.70000
O43         O  0.48235522  0.19383378  0.05757927    -0.70700
O44         O  0.00416849  0.22361883  0.40802527    -0.70300
O45         O  0.09557825  0.30746861  0.02439541    -0.70900
O46         O  0.00083581  0.31794786  0.42785538    -0.70300
O47         O  0.47965729  0.27693654  0.08346956    -0.71000
O48         O  0.05626536  0.32048299  0.42575056    -0.70400
O49         O  0.46869323  0.30539812  0.02931572    -0.70900
O50         O  0.41283680  0.24006562  0.44511657    -0.70800
O51         O  0.42089317  0.19401669  0.42537147    -0.70600
C52         C  0.47414630  0.16841149  0.02953162     0.81200
C53         C  0.09226160  0.30329614  0.06523394     0.81700
C54         C  0.03030645  0.21826484  0.41780830     0.80700
C55         C  0.03278535  0.32930291  0.41149464     0.81000
C56         C  0.47495916  0.30294809  0.06875738     0.82200
C57         C  0.40165307  0.20974423  0.42392681     0.81200
Zn58       Zn  0.44918677  0.19202424  0.25490155     1.49700
Zn59       Zn  0.50341409  0.26303376  0.19435859     1.49400
Zn60       Zn  0.48308289  0.26321192  0.30042840     1.49100
Zn61       Zn  0.04686246  0.24465267  0.24681943     1.49500
O62         O  0.49520990  0.24115641  0.25089395    -1.80000
O63         O  0.43429250  0.17438991  0.19576537    -0.70700
O64         O  0.48279954  0.29648017  0.20119097    -0.70500
O65         O  0.43171866  0.23422112  0.33336074    -0.70000
O66         O  0.48265096  0.21692329  0.15807821    -0.70700
O67         O  0.40259605  0.18434824  0.29312376    -0.70300
O68         O  0.48513858  0.30739428  0.27219999    -0.70900
O69         O  0.06727035  0.26292108  0.30546741    -0.70300
O70         O  0.06101001  0.30029767  0.16326343    -0.71000
O71         O  0.02775594  0.27452993  0.33769802    -0.70400
O72         O  0.08982081  0.27755555  0.19971520    -0.70900
O73         O  0.03038919  0.19013948  0.24911766    -0.70800
O74         O  0.96952375  0.16146599  0.26750999    -0.70600
C75         C  0.45871337  0.18317321  0.16682229     0.81200
C76         C  0.48339219  0.31561673  0.23339599     0.81700
C77         C  0.40187767  0.20360512  0.32463793     0.80700
C78         C  0.05515994  0.28466648  0.31282653     0.81000
C79         C  0.09039076  0.29848722  0.16920417     0.82200
C80         C  0.00036190  0.16215963  0.26332028     0.81200
C81         C  0.45574656  0.07976185  0.09098810     0.06400
C82         C  0.46366084  0.09210804  0.13352021     0.06300
C83         C  0.44605234  0.06596427  0.16577302    -0.14200
C84         C  0.41045971  0.03592178  0.15704353     0.06400
C85         C  0.39743819  0.02936557  0.11470762     0.06300
C86         C  0.42344657  0.04582145  0.08207469    -0.14200
H87         H  0.41370683  0.03982552  0.04942510     0.08400
H88         H  0.45319538  0.07504084  0.19852839     0.08400
C89         C  0.11060730  0.03537180  0.07003914     0.06400
C90         C  0.11033108  0.02910923  0.11434396     0.06300
C91         C  0.10346510  0.05153970  0.14112639    -0.14200
C92         C  0.11792918  0.08841036  0.12825707     0.06400
C93         C  0.12899303  0.09840413  0.08567599     0.06300
C94         C  0.11738472  0.07012068  0.05580009    -0.14200
H95         H  0.12454862  0.07771271  0.02267439     0.08400
H96         H  0.10057202  0.04558116  0.17495338     0.08400
C97         C  0.37777644  0.46643084  0.39262127     0.06400
C98         C  0.39670851  0.47977870  0.35338115     0.06300
C99         C  0.41069079  0.45956780  0.33295138    -0.14200
C100        C  0.39496963  0.42201583  0.34391878     0.06400
C101        C  0.37620459  0.40952632  0.38324354     0.06300
C102        C  0.37659181  0.43556657  0.41124850    -0.14200
H103        H  0.36163109  0.42541201  0.44115980     0.08400
H104        H  0.42280387  0.46837036  0.30151167     0.08400
Zn105      Zn  0.26152474  0.46247979  0.24912362     1.49700
Zn106      Zn  0.24375753  0.99640352  0.19668658     1.49400
Zn107      Zn  0.21798350  0.03177577  0.27387072     1.49100
Zn108      Zn  0.28170726  0.02567548  0.29410965     1.49500
O109        O  0.23782889  0.00045803  0.25746795    -1.80000
O110        O  0.23112996  0.42031600  0.20012452    -0.70700
O111        O  0.21683557  0.01965946  0.16699253    -0.70500
O112        O  0.22748063  0.48094347  0.33573461    -0.70000
O113        O  0.20622026  0.44756747  0.16418697    -0.70700
O114        O  0.23998684  0.44087498  0.30649234    -0.70300
O115        O  0.18874246  0.03096521  0.22121921    -0.70900
O116        O  0.30022879  0.07601584  0.32285391    -0.70300
O117        O  0.29916415  0.01531951  0.19250432    -0.71000
O118        O  0.25432591  0.08495132  0.30495490    -0.70400
O119        O  0.32094406  0.02625590  0.25985437    -0.70900
O120        O  0.33722054  0.53790770  0.28440561    -0.70800
O121        O  0.31661557  0.48045765  0.25804470    -0.70600
C122        C  0.20960853  0.41904135  0.16980273     0.81200
C123        C  0.19142635  0.02535085  0.18162148     0.81700
C124        C  0.21858397  0.45376845  0.31098501     0.80700
C125        C  0.28507585  0.09573287  0.32519290     0.81000
C126        C  0.32420534  0.02187931  0.22049882     0.82200
C127        C  0.34009825  0.50917525  0.27934019     0.81200
Zn128      Zn  0.26436559  0.22222194  0.23399000     1.49700
Zn129      Zn  0.26128579  0.26487156  0.30749480     1.49400
Zn130      Zn  0.26821573  0.29866039  0.20686378     1.49100
Zn131      Zn  0.19549933  0.24500394  0.23732099     1.49500
O132        O  0.24638609  0.25730691  0.24811071    -1.80000
O133        O  0.28129763  0.19945236  0.28413111    -0.70700
O134        O  0.30296080  0.31842003  0.30627595    -0.70500
O135        O  0.28438821  0.27815055  0.16158879    -0.70000
O136        O  0.28579927  0.23666194  0.33589779    -0.70700
O137        O  0.31201385  0.25503550  0.19931000    -0.70300
O138        O  0.31295188  0.33776810  0.23781276    -0.70900
O139        O  0.18201896  0.27892323  0.19854414    -0.70300
O140        O  0.21268186  0.24197537  0.34130436    -0.71000
O141        O  0.23785173  0.31815915  0.17350465    -0.70400
O142        O  0.16826736  0.22653396  0.29191851    -0.70900
O143        O  0.17623183  0.19827673  0.20745938    -0.70800
O144        O  0.21939280  0.18087530  0.20406305    -0.70600
C145        C  0.29008768  0.21013022  0.32275777     0.81200
C146        C  0.32263719  0.34134826  0.27680764     0.81700
C147        C  0.31380734  0.27926576  0.17325325     0.80700
C148        C  0.20284897  0.30582065  0.17331965     0.81000
C149        C  0.17865556  0.22382178  0.32915103     0.82200
C150        C  0.18659220  0.17542144  0.19772388     0.81200
Zn151      Zn  0.21776942  0.45090250  0.47190429     1.49700
Zn152      Zn  0.22939709  0.99304290  0.05369691     1.49400
Zn153      Zn  0.30355809  0.05041105  0.49717117     1.49100
Zn154      Zn  0.23209487  0.01532748  0.44990649     1.49500
O155        O  0.25259388  0.00175694  0.99773372    -1.80000
O156        O  0.19511928  0.41415090  0.02597308    -0.70700
O157        O  0.27404650  0.01395029  0.09197094    -0.70500
O158        O  0.27774794  0.49040293  0.40228176    -0.70000
O159        O  0.23300685  0.44904629  0.07704535    -0.70700
O160        O  0.25872596  0.44303615  0.44642527    -0.70300
O161        O  0.31648059  0.06296995  0.05538161    -0.70900
O162        O  0.26142405  0.06626954  0.41641995    -0.70300
O163        O  0.19576893  0.01291081  0.04586866    -0.71000
O164        O  0.31116814  0.09571628  0.45693439    -0.70400
O165        O  0.18606707  0.01131873  0.97463242    -0.70900
O166        O  0.19221870  0.50863496  0.42531975    -0.70800
O167        O  0.18262671  0.45032694  0.42446435    -0.70600
C168        C  0.20600470  0.41742544  0.06506757     0.81200
C169        C  0.30779141  0.03800496  0.08360903     0.81700
C170        C  0.28128499  0.46452667  0.41794391     0.80700
C171        C  0.29215189  0.09604622  0.42493248     0.81000
C172        C  0.17722916  0.01273477  0.01333732     0.82200
C173        C  0.17741272  0.47606864  0.40934032     0.81200
Zn174      Zn  0.21268925  0.23946511  0.04651893     1.49700
Zn175      Zn  0.28716640  0.24155361  0.01301345     1.49400
Zn176      Zn  0.23754131  0.24029570  0.44416250     1.49100
Zn177      Zn  0.26402420  0.30948396  0.00942170     1.49500
O178        O  0.24893632  0.25760029  0.50223555    -1.80000
O179        O  0.23359891  0.22073738  0.08832507    -0.70700
O180        O  0.30496826  0.22307390  0.46250671    -0.70500
O181        O  0.18225840  0.20524138  0.44828734    -0.70000
O182        O  0.25644014  0.19407971  0.04836146    -0.70700
O183        O  0.16705994  0.19795882  0.51813578    -0.70300
O184        O  0.26106129  0.21095695  0.41582445    -0.70900
O185        O  0.27825478  0.33362038  0.45574777    -0.70300
O186        O  0.33016322  0.28758114  0.03916754    -0.71000
O187        O  0.26291147  0.28753407  0.40885861    -0.70400
O188        O  0.31251451  0.33062300  0.03687217    -0.70900
O189        O  0.23012848  0.32481005  0.04424393    -0.70800
O190        O  0.19693989  0.27248758  0.07940609    -0.70600
C191        C  0.23146500  0.19158613  0.07369324     0.81200
C192        C  0.29019290  0.20994823  0.42616916     0.81700
C193        C  0.15963988  0.18883396  0.47922842     0.80700
C194        C  0.28122761  0.32179839  0.41967776     0.81000
C195        C  0.33606580  0.32062643  0.04471374     0.82200
C196        C  0.20601045  0.30622880  0.07307491     0.81200
C197        C  0.32542251  0.17086172  0.33311379     0.49500
H198        H  0.32527042  0.17029079  0.29781017     0.00500
C199        C  0.32662965  0.17212846  0.41571928     0.49600
H200        H  0.32715470  0.17235541  0.45103118     0.00500
C201        C  0.30369245  0.13090194  0.35269288    -0.12800
C202        C  0.36639477  0.19015443  0.35199874    -0.12900
C203        C  0.30625200  0.19203458  0.35201402    -0.13300
C204        C  0.30608538  0.13120399  0.39702362    -0.13300
C205        C  0.36659462  0.19242444  0.39629160    -0.12800
C206        C  0.30669263  0.19243030  0.39669958    -0.13200
C207        C  0.35776193  0.37204339  0.28867876    -0.09200
C208        C  0.38208866  0.39627407  0.30934932    -0.10700
C209        C  0.38706415  0.50087473  0.32567552    -0.09200
C210        C  0.36916658  0.50801268  0.30173508    -0.10700
C211        C  0.34308775  0.37314509  0.38690011    -0.09200
C212        C  0.31226960  0.34772101  0.39486881    -0.10700
C213        C  0.34572429  0.46954882  0.40270207    -0.09200
C214        C  0.31528648  0.46522475  0.40923911    -0.10700
C215        C  0.19590544  0.15784628  0.07559929    -0.09200
C216        C  0.16421902  0.13203113  0.07714391    -0.10700
C217        C  0.15906309  0.14196380  0.17936290    -0.09200
C218        C  0.13593672  0.11601741  0.15995926    -0.10700
C219        C  0.16287806  0.02253150  0.15299890    -0.09200
C220        C  0.13709537  0.02043779  0.13268833    -0.10700
C221        C  0.14400185  0.01254320  0.02201650    -0.09200
C222        C  0.12193913  0.01701367  0.04108744    -0.10700
C223        C  0.38369865  0.02554560  0.19003255    -0.09200
C224        C  0.35720348  0.02312244  0.20750943    -0.10700
C225        C  0.33636561  0.03158319  0.09938491    -0.09200
C226        C  0.36163748  0.02596003  0.10614500    -0.10700
C227        C  0.46442232  0.15441379  0.15018277    -0.09200
C228        C  0.46899835  0.12854212  0.14300309    -0.10700
C229        C  0.47164102  0.13472691  0.04205438    -0.09200
C230        C  0.46777094  0.10730152  0.05866277    -0.10700
C231        C  0.48464362  0.34931841  0.22450079    -0.09200
C232        C  0.48354055  0.37368288  0.20615611    -0.10700
C233        C  0.48460987  0.35994581  0.11586165    -0.09200
C234        C  0.48011039  0.33264253  0.09685548    -0.10700
C235        C  0.37530273  0.34416764  0.16248008    -0.09200
C236        C  0.34833074  0.31335216  0.16628143    -0.10700
C237        C  0.39720736  0.37134274  0.07948042    -0.09200
C238        C  0.37074099  0.34861105  0.06034827    -0.10700
C239        C  0.16466998  0.44420383  0.26361073    -0.09200
C240        C  0.19252201  0.44770633  0.27862142    -0.10700
C241        C  0.06643839  0.34142989  0.26839205    -0.09200
C242        C  0.06221453  0.31300069  0.28284858    -0.10700
C243        C  0.13953435  0.46435917  0.33782960    -0.09200
C244        C  0.15595113  0.46955694  0.37112596    -0.10700
C245        C  0.04567149  0.36747241  0.34068104    -0.09200
C246        C  0.04082301  0.35101269  0.37366071    -0.10700
C247        C  0.15137898  0.19381520  0.35488942    -0.09200
C248        C  0.12591075  0.16377738  0.36603791    -0.10700
C249        C  0.12449514  0.15801308  0.46927764    -0.09200
C250        C  0.09824740  0.13578049  0.44947527    -0.10700
C251        C  0.01195969  0.11795124  0.30818819    -0.09200
C252        C  0.00318848  0.13271000  0.28180739    -0.10700
C253        C  0.02050839  0.15334412  0.39270609    -0.09200
C254        C  0.02746270  0.18432613  0.40259468    -0.10700
C255        C  0.16585995  0.34242231  0.57889616     0.49500
H256        H  0.16678783  0.34187709  0.54363276     0.00500
C257        C  0.16452230  0.34225752  0.66137787     0.49600
H258        H  0.16401573  0.34230085  0.69669206     0.00500
C259        C  0.18607723  0.38309972  0.59694411    -0.13200
C260        C  0.12473360  0.32170125  0.59641814    -0.12900
C261        C  0.18593706  0.32285971  0.59964748    -0.13300
C262        C  0.18665716  0.38334091  0.64196560    -0.13300
C263        C  0.12386368  0.32035721  0.64137906    -0.12800
C264        C  0.18474610  0.32236641  0.64390737    -0.13200
C265        C  0.02049831  0.11704046  0.88495377     0.06400
C266        C  0.03107832  0.11313237  0.84356088     0.06300
C267        C  0.06826086  0.12292071  0.83726606    -0.14200
C268        C  0.09202290  0.13434588  0.87241905     0.06400
C269        C  0.07596789  0.12298447  0.91318287     0.06300
C270        C  0.03799383  0.11002753  0.91841192    -0.14200
H271        H  0.02741117  0.10811705  0.95042978     0.08400
H272        H  0.08001237  0.12962469  0.80546591     0.08400
C273        C  0.05912222  0.38932944  0.80593486     0.06400
C274        C  0.07130377  0.37740517  0.77035466     0.06300
C275        C  0.10124307  0.40375805  0.74650044    -0.14200
C276        C  0.12654801  0.43611200  0.76793689     0.06400
C277        C  0.11442930  0.44772829  0.80405224     0.06300
C278        C  0.07690585  0.42723894  0.81505439    -0.14200
H279        H  0.06782522  0.43587125  0.84305140     0.08400
H280        H  0.11132735  0.39407747  0.72043807     0.08400
C281        C  0.42110729  0.38660235  0.61608251     0.06400
C282        C  0.40938906  0.37733331  0.65867997     0.06300
C283        C  0.43633864  0.38578127  0.68961944    -0.14200
C284        C  0.46827110  0.38524584  0.67712650     0.06400
C285        C  0.47559249  0.38486274  0.63323956     0.06300
C286        C  0.45715394  0.39562588  0.60483353    -0.14200
H287        H  0.46388827  0.39719941  0.57123675     0.08400
H288        H  0.42749477  0.37995947  0.72261483     0.08400
Zn289      Zn  0.47156654  0.21175768  0.95583144     1.49700
Zn290      Zn  0.50136705  0.24738573  0.55193232     1.49400
Zn291      Zn  0.05329054  0.28237236  0.97371724     1.49100
Zn292      Zn  0.46603816  0.27529978  0.97685347     1.49500
O293        O  0.49699042  0.25439997  0.49148760    -1.80000
O294        O  0.46930863  0.17052957  0.48778738    -0.70700
O295        O  0.05772709  0.28446611  0.58009982    -0.70500
O296        O  0.05389937  0.23671098  0.94611453    -0.70000
O297        O  0.48222581  0.19174365  0.55526799    -0.70700
O298        O  0.00322788  0.22106986  0.90938162    -0.70300
O299        O  0.09454157  0.30855139  0.52470646    -0.70900
O300        O  0.00103778  0.31665869  0.93062270    -0.70300
O301        O  0.47825412  0.27395500  0.58248637    -0.71000
O302        O  0.05588667  0.31813646  0.92655830    -0.70400
O303        O  0.46776842  0.30336702  0.52899409    -0.70900
O304        O  0.41232231  0.23941996  0.94634433    -0.70800
O305        O  0.42210864  0.19479601  0.92533499    -0.70600
C306        C  0.47436105  0.16670970  0.52680875     0.81200
C307        C  0.09070480  0.30400888  0.56548670     0.81700
C308        C  0.02938806  0.21563714  0.91878647     0.80700
C309        C  0.03253563  0.32749514  0.91334199     0.81000
C310        C  0.47338719  0.30003625  0.56836113     0.82200
C311        C  0.40204943  0.20962844  0.92430967     0.81200
Zn312      Zn  0.44891808  0.18863590  0.75503046     1.49700
Zn313      Zn  0.50278403  0.25857636  0.69419168     1.49400
Zn314      Zn  0.48400505  0.25954130  0.80042460     1.49100
Zn315      Zn  0.04551599  0.24313710  0.74754632     1.49500
O316        O  0.49520128  0.23724095  0.75059695    -1.80000
O317        O  0.43516605  0.16848365  0.69642205    -0.70700
O318        O  0.48060314  0.29062367  0.70087803    -0.70500
O319        O  0.43308675  0.23132850  0.83410067    -0.70000
O320        O  0.48291919  0.21213141  0.65870243    -0.70700
O321        O  0.40237094  0.18261067  0.79249159    -0.70300
O322        O  0.48509626  0.30296410  0.77167498    -0.70900
O323        O  0.06573820  0.26118665  0.80625956    -0.70300
O324        O  0.05868373  0.29769792  0.66329230    -0.71000
O325        O  0.02641821  0.27308093  0.83842285    -0.70400
O326        O  0.08863157  0.27683115  0.70072853    -0.70900
O327        O  0.02906759  0.18849223  0.74926210    -0.70800
O328        O  0.96860366  0.15979418  0.76938619    -0.70600
C329        C  0.45921424  0.17816354  0.66682221     0.81200
C330        C  0.48181427  0.31021023  0.73292911     0.81700
C331        C  0.40249680  0.20174620  0.82467317     0.80700
C332        C  0.05395107  0.28317848  0.81379064     0.81000
C333        C  0.08865412  0.29712483  0.66977113     0.82200
C334        C  0.99932199  0.16046495  0.76398995     0.81200
C335        C  0.45572436  0.07681437  0.58618145     0.06400
C336        C  0.46434039  0.08827409  0.62893340     0.06300
C337        C  0.44651503  0.06158691  0.66060671    -0.14200
C338        C  0.40997721  0.03327992  0.65217888     0.06400
C339        C  0.39663672  0.02760377  0.60993593     0.06300
C340        C  0.42256950  0.04367444  0.57712113    -0.14200
H341        H  0.41253628  0.03847944  0.54454340     0.08400
H342        H  0.45444290  0.06992866  0.69350528     0.08400
C343        C  0.10973393  0.03531846  0.57287488     0.06400
C344        C  0.10996660  0.02875051  0.61703836     0.06300
C345        C  0.10263928  0.05038503  0.64463540    -0.14200
C346        C  0.11572225  0.08714038  0.63222731     0.06400
C347        C  0.12594759  0.09752339  0.58950814     0.06300
C348        C  0.11449424  0.06946779  0.55933070    -0.14200
H349        H  0.12095847  0.07737759  0.52615769     0.08400
H350        H  0.10043568  0.04422216  0.67845197     0.08400
C351        C  0.37887858  0.46589770  0.89247265     0.06400
C352        C  0.39768769  0.47975497  0.85325893     0.06300
C353        C  0.41206424  0.46012617  0.83233541    -0.14200
C354        C  0.39643689  0.42242966  0.84245246     0.06400
C355        C  0.37788969  0.40934016  0.88184112     0.06300
C356        C  0.37790475  0.43488781  0.91038311    -0.14200
H357        H  0.36298955  0.42429199  0.94026969     0.08400
H358        H  0.42415856  0.46942729  0.80092492     0.08400
Zn359      Zn  0.26054294  0.46147000  0.75080263     1.49700
Zn360      Zn  0.24517624  0.99728360  0.69608864     1.49400
Zn361      Zn  0.21898038  0.03158317  0.77379075     1.49100
Zn362      Zn  0.28426649  0.02735870  0.79206809     1.49500
O363        O  0.23970546  0.00119826  0.75690006    -1.80000
O364        O  0.22940459  0.41905570  0.70177731    -0.70700
O365        O  0.21752826  0.01989072  0.66683309    -0.70500
O366        O  0.22801661  0.48138474  0.83768160    -0.70000
O367        O  0.20615981  0.44735366  0.66485325    -0.70700
O368        O  0.23960114  0.44055456  0.80868717    -0.70300
O369        O  0.18986654  0.03116197  0.72152931    -0.70900
O370        O  0.30261766  0.07782241  0.81979420    -0.70300
O371        O  0.30052998  0.01671360  0.69055021    -0.71000
O372        O  0.25433617  0.08410660  0.80582114    -0.70400
O373        O  0.32324837  0.02753401  0.75744040    -0.70900
O374        O  0.33656609  0.53678645  0.78596127    -0.70800
O375        O  0.31572774  0.47935296  0.75929182    -0.70600
C376        C  0.20856940  0.41831829  0.67088109     0.81200
C377        C  0.19224944  0.02556018  0.68189767     0.81700
C378        C  0.21847060  0.45373759  0.81347243     0.80700
C379        C  0.28603515  0.09602621  0.82423611     0.81000
C380        C  0.32593195  0.02312290  0.71794355     0.82200
C381        C  0.33936412  0.50804419  0.78055689     0.81200
Zn382      Zn  0.26368727  0.22168100  0.73416278     1.49700
Zn383      Zn  0.26294984  0.26603023  0.80707237     1.49400
Zn384      Zn  0.26798130  0.29906125  0.70619178     1.49100
Zn385      Zn  0.19583796  0.24592144  0.73804219     1.49500
O386        O  0.24682080  0.25792910  0.74802939    -1.80000
O387        O  0.28134290  0.19923114  0.78404539    -0.70700
O388        O  0.30486295  0.31938308  0.80455479    -0.70500
O389        O  0.28326179  0.27699667  0.66188106    -0.70000
O390        O  0.28723442  0.23727854  0.83546065    -0.70700
O391        O  0.31085206  0.25327943  0.69855438    -0.70300
O392        O  0.31305676  0.33898052  0.73625261    -0.70900
O393        O  0.18159592  0.27906005  0.69914927    -0.70300
O394        O  0.21499155  0.24492885  0.84172642    -0.71000
O395        O  0.23689080  0.31783145  0.67259454    -0.70400
O396        O  0.16994763  0.23015127  0.79333034    -0.70900
O397        O  0.17513925  0.19803771  0.71003999    -0.70800
O398        O  0.21783815  0.18009237  0.70573443    -0.70600
C399        C  0.29094981  0.21033431  0.82241203     0.81200
C400        C  0.32365356  0.34255625  0.77491900     0.81700
C401        C  0.31271995  0.27829772  0.67378139     0.80700
C402        C  0.20188395  0.30555075  0.67327993     0.81000
C403        C  0.18074214  0.22773535  0.83040085     0.82200
C404        C  0.18495600  0.17472599  0.70040757     0.81200
Zn405      Zn  0.21932441  0.45220795  0.97207960     1.49700
Zn406      Zn  0.23097228  0.99506908  0.55613844     1.49400
Zn407      Zn  0.30150297  0.04811655  0.99550869     1.49100
Zn408      Zn  0.23110588  0.01364445  0.94728098     1.49500
O409        O  0.25461971  0.00400517  0.49996942    -1.80000
O410        O  0.19363591  0.41333676  0.52645452    -0.70700
O411        O  0.27482605  0.01795376  0.59596626    -0.70500
O412        O  0.28029298  0.49190945  0.90261460    -0.70000
O413        O  0.23190548  0.44832914  0.57723598    -0.70700
O414        O  0.26026408  0.44432047  0.94666244    -0.70300
O415        O  0.31606487  0.06579489  0.55732634    -0.70900
O416        O  0.26107637  0.06527657  0.91447577    -0.70300
O417        O  0.19638969  0.01387484  0.54846926    -0.71000
O418        O  0.30994807  0.09431553  0.95628018    -0.70400
O419        O  0.18723375  0.01336406  0.47730700    -0.70900
O420        O  0.19267290  0.50983491  0.92714741    -0.70800
O421        O  0.18390508  0.45184432  0.92530058    -0.70600
C422        C  0.20465502  0.41675869  0.56555209     0.81200
C423        C  0.30831662  0.04055580  0.58492019     0.81700
C424        C  0.28320486  0.46567481  0.91839216     0.80700
C425        C  0.29158190  0.09507038  0.92385248     0.81000
C426        C  0.17821863  0.01446023  0.51599436     0.82200
C427        C  0.17800211  0.47735116  0.91093334     0.81200
Zn428      Zn  0.21062188  0.23896676  0.54683955     1.49700
Zn429      Zn  0.28468495  0.24055575  0.51422978     1.49400
Zn430      Zn  0.23902122  0.24029300  0.94392189     1.49100
Zn431      Zn  0.26176365  0.30874112  0.51051036     1.49500
O432        O  0.25084600  0.25811075  0.00175489    -1.80000
O433        O  0.23078622  0.22005342  0.58931926    -0.70700
O434        O  0.30675035  0.22387414  0.96125024    -0.70500
O435        O  0.18365733  0.20585024  0.94817451    -0.70000
O436        O  0.25254542  0.19272752  0.54881568    -0.70700
O437        O  0.16887178  0.19847080  0.01810768    -0.70300
O438        O  0.26167337  0.21026647  0.91570838    -0.70900
O439        O  0.27945067  0.33389594  0.95400183    -0.70300
O440        O  0.32709746  0.28651166  0.54201436    -0.71000
O441        O  0.26532629  0.28722566  0.90842659    -0.70400
O442        O  0.30936392  0.32950219  0.53963396    -0.70900
O443        O  0.22757468  0.32400125  0.54422503    -0.70800
O444        O  0.19483173  0.27183319  0.57972105    -0.70600
C445        C  0.22820157  0.19066692  0.57488317     0.81200
C446        C  0.29124948  0.20993217  0.92549477     0.81700
C447        C  0.16114056  0.18950839  0.97921242     0.80700
C448        C  0.28316877  0.32164069  0.91853355     0.81000
C449        C  0.33274351  0.31943879  0.54812856     0.82200
C450        C  0.20372652  0.30548747  0.57324482     0.81200
C451        C  0.32626717  0.17075570  0.83271241     0.49500
H452        H  0.32629810  0.17031416  0.79740557     0.00500
C453        C  0.32695883  0.17158857  0.91531924     0.49600
H454        H  0.32722761  0.17167284  0.95063446     0.00500
C455        C  0.30416476  0.13080134  0.85205358    -0.12800
C456        C  0.36710036  0.18940989  0.85191295    -0.12900
C457        C  0.30722047  0.19212393  0.85150979    -0.13300
C458        C  0.30612658  0.13068079  0.89637507    -0.13300
C459        C  0.36710390  0.19184035  0.89625707    -0.12800
C460        C  0.30748101  0.19225954  0.89614628    -0.13200
C461        C  0.35884835  0.37343572  0.78629999    -0.09200
C462        C  0.38326085  0.39730195  0.80726721    -0.10700
C463        C  0.38726691  0.50041732  0.82590688    -0.09200
C464        C  0.36872702  0.50701605  0.80237726    -0.10700
C465        C  0.34516880  0.37267661  0.88540360    -0.09200
C466        C  0.31441234  0.34728567  0.89371439    -0.10700
C467        C  0.34698233  0.46911941  0.90328206    -0.09200
C468        C  0.31681779  0.46549980  0.90983396    -0.10700
C469        C  0.19266193  0.15701796  0.57823331    -0.09200
C470        C  0.16096841  0.13131075  0.58071897    -0.10700
C471        C  0.15684201  0.14094474  0.68310906    -0.09200
C472        C  0.13363153  0.11475733  0.66402733    -0.10700
C473        C  0.16338058  0.02259773  0.65385778    -0.09200
C474        C  0.13715993  0.02032331  0.63442958    -0.10700
C475        C  0.14514265  0.01464057  0.52464269    -0.09200
C476        C  0.12259844  0.01857852  0.54345668    -0.10700
C477        C  0.38388105  0.02463715  0.68563653    -0.09200
C478        C  0.35839740  0.02367397  0.70401335    -0.10700
C479        C  0.33654240  0.03209705  0.59668669    -0.09200
C480        C  0.36126573  0.02537712  0.60201870    -0.10700
C481        C  0.46473862  0.14993008  0.64822093    -0.09200
C482        C  0.46955331  0.12442651  0.63970574    -0.10700
C483        C  0.47201689  0.13289718  0.53873112    -0.09200
C484        C  0.46799793  0.10510902  0.55461788    -0.10700
C485        C  0.48187567  0.34329786  0.72396335    -0.09200
C486        C  0.48033489  0.36777367  0.70647833    -0.10700
C487        C  0.48148114  0.35588404  0.61621050    -0.09200
C488        C  0.47761405  0.32894216  0.59703184    -0.10700
C489        C  0.37383063  0.34405260  0.66679520    -0.09200
C490        C  0.34694048  0.31309546  0.66933232    -0.10700
C491        C  0.39374047  0.37014237  0.58366495    -0.09200
C492        C  0.36706184  0.34736373  0.56477710    -0.10700
C493        C  0.16389234  0.44358552  0.76687277    -0.09200
C494        C  0.19190228  0.44732694  0.78166803    -0.10700
C495        C  0.06588582  0.34059456  0.77029329    -0.09200
C496        C  0.06149137  0.31191288  0.78417986    -0.10700
C497        C  0.13876608  0.46457925  0.84035027    -0.09200
C498        C  0.15584490  0.47057394  0.87327162    -0.10700
C499        C  0.04476745  0.36588983  0.84290385    -0.09200
C500        C  0.04013932  0.34924369  0.87566755    -0.10700
C501        C  0.15336220  0.19847477  0.85664072    -0.09200
C502        C  0.12768727  0.16835915  0.86707680    -0.10700
C503        C  0.12570899  0.15904687  0.96936222    -0.09200
C504        C  0.09938209  0.13722415  0.94933666    -0.10700
C505        C  0.01203702  0.11658173  0.80767460    -0.09200
C506        C  0.00248070  0.13092758  0.78163648    -0.10700
C507        C  0.01961961  0.15085957  0.89299082    -0.09200
C508        C  0.02635450  0.18167879  0.90331783    -0.10700
C509        C  0.15732929  0.83601098  0.08705857     0.49500
H510        H  0.15701464  0.83608142  0.05173594     0.00500
C511        C  0.15788217  0.83591123  0.16951278     0.49600
H512        H  0.15858146  0.83543519  0.20478793     0.00500
C513        C  0.17839697  0.87675962  0.10642095    -0.13200
C514        C  0.11661277  0.81386004  0.10671721    -0.12900
C515        C  0.17795507  0.81664932  0.10486777    -0.13300
C516        C  0.17788260  0.87665069  0.15136963    -0.13300
C517        C  0.11704558  0.81503951  0.15161306    -0.12800
C518        C  0.17834464  0.81657384  0.14912385    -0.13200
C519        C  0.01388074  0.60526303  0.39257552     0.06400
C520        C  0.02699045  0.62346254  0.35285780     0.06300
C521        C  0.05852768  0.62539980  0.33491292    -0.14200
C522        C  0.08482206  0.62692634  0.36340500     0.06400
C523        C  0.07251721  0.60944054  0.40335816     0.06300
C524        C  0.03476553  0.59248840  0.41376756    -0.14200
H525        H  0.02617096  0.58094625  0.44549632     0.08400
H526        H  0.06856071  0.63982066  0.30468111     0.08400
C527        C  0.06500855  0.87498349  0.48234559     0.06400
C528        C  0.05319025  0.88686718  0.44621873     0.06300
C529        C  0.07298607  0.92448916  0.43567390    -0.14200
C530        C  0.11091439  0.94279787  0.44483355     0.06400
C531        C  0.12306419  0.93091740  0.48053695     0.06300
C532        C  0.09691580  0.90066506  0.50418528    -0.14200
H533        H  0.10673500  0.89080391  0.53030710     0.08400
H534        H  0.06411349  0.93342129  0.40782183     0.08400
C535        C  0.41420986  0.88516585  0.11361382     0.06400
C536        C  0.41697689  0.87068518  0.15302308     0.06300
C537        C  0.45179231  0.87790653  0.16611371    -0.14200
C538        C  0.47725259  0.88274174  0.13408316     0.06400
C539        C  0.47391482  0.89532336  0.09339355     0.06300
C540        C  0.44522566  0.90276899  0.08673793    -0.14200
H541        H  0.44147143  0.91065747  0.05497271     0.08400
H542        H  0.45347626  0.86646024  0.19657042     0.08400
Zn543      Zn  0.44764975  0.70196189  0.49840240     1.49700
Zn544      Zn  0.50541587  0.77242018  0.05723125     1.49400
Zn545      Zn  0.03779821  0.74043257  0.50027559     1.49100
Zn546      Zn  0.48319899  0.77353977  0.45326811     1.49500
O547        O  0.49591985  0.75005635  0.00095263    -1.80000
O548        O  0.44199690  0.68022350  0.05470897    -0.70700
O549        O  0.05326541  0.79570537  0.08336692    -0.70500
O550        O  0.01750513  0.68479285  0.49087762    -0.70000
O551        O  0.48096548  0.72830643  0.09623184    -0.70700
O552        O  0.95938110  0.66591685  0.46797289    -0.70300
O553        O  0.08065666  0.77076468  0.04761335    -0.70900
O554        O  0.02089775  0.77459445  0.41243107    -0.70300
O555        O  0.48876387  0.80930878  0.05238812    -0.71000
O556        O  0.05989236  0.76108664  0.44272232    -0.70400
O557        O  0.48562957  0.81916990  0.98213613    -0.70900
O558        O  0.43227372  0.74259322  0.41934956    -0.70800
O559        O  0.40090369  0.69521144  0.46278949    -0.70600
C560        C  0.46076138  0.69351936  0.08876360     0.81200
C561        C  0.08172322  0.79219978  0.07796168     0.81700
C562        C  0.98771540  0.66210110  0.47053736     0.80700
C563        C  0.04801830  0.78323960  0.43720352     0.81000
C564        C  0.48627706  0.82786730  0.02146591     0.82200
C565        C  0.40187605  0.71257108  0.42863642     0.81200
Zn566      Zn  0.47673782  0.71894031  0.30422825     1.49700
Zn567      Zn  0.50474578  0.74866196  0.20415879     1.49400
Zn568      Zn  0.46998722  0.77981267  0.27686621     1.49100
Zn569      Zn  0.04869745  0.78457655  0.27538731     1.49500
O570        O  0.50112469  0.75971528  0.26317337    -1.80000
O571        O  0.46898620  0.67420980  0.27391810    -0.70700
O572        O  0.48043857  0.77196808  0.17187085    -0.70500
O573        O  0.41456276  0.74374792  0.30191991    -0.70000
O574        O  0.48292132  0.69294348  0.20580264    -0.70700
O575        O  0.42848186  0.70627150  0.33579950    -0.70300
O576        O  0.47523148  0.80709736  0.22272849    -0.70900
O577        O  0.04945781  0.81942006  0.32283734    -0.70300
O578        O  0.05165395  0.76998751  0.17114328    -0.71000
O579        O  0.99132688  0.81040820  0.32188217    -0.70400
O580        O  0.08668610  0.80855242  0.22162154    -0.70900
O581        O  0.05664936  0.74384499  0.30034500    -0.70800
O582        O  0.01055698  0.72836965  0.34508575    -0.70600
C583        C  0.47248454  0.66822386  0.23509828     0.81200
C584        C  0.48006886  0.80101266  0.18406239     0.81700
C585        C  0.40575486  0.71757521  0.32926877     0.80700
C586        C  0.02389763  0.82489672  0.33793403     0.81000
C587        C  0.08331372  0.79710478  0.18278464     0.82200
C588        C  0.03454821  0.72222113  0.32893472     0.81200
C589        C  0.46890933  0.60763175  0.12558222     0.06400
C590        C  0.45589888  0.58699416  0.16364997     0.06300
C591        C  0.42555903  0.55063708  0.16187984    -0.14200
C592        C  0.40542969  0.53949110  0.12393513     0.06400
C593        C  0.42463809  0.55497477  0.08550852     0.06300
C594        C  0.45875544  0.58841319  0.08700291    -0.14200
H595        H  0.46989019  0.60406160  0.05762109     0.08400
H596        H  0.41129658  0.53745120  0.19139030     0.08400
C597        C  0.12200508  0.52496257  0.11449667     0.06400
C598        C  0.10966460  0.52807502  0.15537785     0.06300
C599        C  0.09786757  0.55367689  0.16115747    -0.14200
C600        C  0.11209605  0.58386209  0.13297988     0.06400
C601        C  0.12553187  0.58104041  0.09275086     0.06300
C602        C  0.12145710  0.54700288  0.08123474    -0.14200
H603        H  0.13236639  0.54532715  0.05044335     0.08400
H604        H  0.09028921  0.55743406  0.19304309     0.08400
C605        C  0.38697023  0.97192315  0.40733079     0.06400
C606        C  0.37961664  0.97991913  0.36612764     0.06300
C607        C  0.38843080  0.96415181  0.33246518    -0.14200
C608        C  0.38111403  0.92783918  0.33850629     0.06400
C609        C  0.37341088  0.91262828  0.37995915     0.06300
C610        C  0.38374657  0.93721296  0.41424772    -0.14200
H611        H  0.38013417  0.92650993  0.44653596     0.08400
H612        H  0.38703059  0.97302369  0.30032269     0.08400
Zn613      Zn  0.21525248  0.94765011  0.27489894     1.49700
Zn614      Zn  0.23713459  0.50151075  0.19132662     1.49400
Zn615      Zn  0.23467434  0.52234675  0.29560342     1.49100
Zn616      Zn  0.30744257  0.55523360  0.25346570     1.49500
O617        O  0.25856549  0.51009573  0.24798534    -1.80000
O618        O  0.19093216  0.90714421  0.22264545    -0.70700
O619        O  0.20197556  0.52069768  0.19542607    -0.70500
O620        O  0.18307246  0.00123638  0.31953755    -0.70000
O621        O  0.21733633  0.94363580  0.16737682    -0.70700
O622        O  0.17938247  0.94526946  0.32186912    -0.70300
O623        O  0.19010226  0.52100575  0.26565759    -0.70900
O624        O  0.31481118  0.60291130  0.28843088    -0.70300
O625        O  0.28269289  0.52377727  0.15409975    -0.71000
O626        O  0.26520411  0.57301663  0.32921648    -0.70400
O627        O  0.33011572  0.56357223  0.19590021    -0.70900
O628        O  0.27359018  0.99358140  0.34284540    -0.70800
O629        O  0.25953297  0.94486489  0.30327973    -0.70600
C630        C  0.19623366  0.91085209  0.18194722     0.81200
C631        C  0.18246537  0.52183927  0.22624384     0.81700
C632        C  0.17126914  0.96926805  0.33609757     0.80700
C633        C  0.29605226  0.60281170  0.32094857     0.81000
C634        C  0.31738989  0.54409157  0.16218992     0.82200
C635        C  0.27946195  0.96790848  0.33240931     0.81200
Zn636      Zn  0.25990590  0.71865167  0.23406294     1.49700
Zn637      Zn  0.25899285  0.76448149  0.30545473     1.49400
Zn638      Zn  0.26431308  0.79361975  0.20232969     1.49100
Zn639      Zn  0.19450449  0.74443873  0.23757334     1.49500
O640        O  0.24456464  0.75488480  0.24643734    -1.80000
O641        O  0.27513016  0.69648661  0.28641677    -0.70700
O642        O  0.29440857  0.81967359  0.30331487    -0.70500
O643        O  0.29300774  0.78200669  0.16190613    -0.70000
O644        O  0.28819409  0.74092532  0.33295720    -0.70700
O645        O  0.31012764  0.75151525  0.20488653    -0.70300
O646        O  0.30193610  0.83711402  0.23413808    -0.70900
O647        O  0.18061449  0.78076000  0.20873180    -0.70300
O648        O  0.21035202  0.73822102  0.33950131    -0.71000
O649        O  0.22940278  0.80626816  0.16665679    -0.70400
O650        O  0.16685901  0.72228526  0.28923062    -0.70900
O651        O  0.17486352  0.70185317  0.20105235    -0.70800
O652        O  0.21463784  0.68003118  0.19967101    -0.70600
C653        C  0.28895510  0.71171494  0.32250377     0.81200
C654        C  0.31087906  0.84323256  0.27320878     0.81700
C655        C  0.31824551  0.77776736  0.17857642     0.80700
C656        C  0.19704838  0.80043666  0.17606484     0.81000
C657        C  0.17666263  0.71940729  0.32642372     0.82200
C658        C  0.18358689  0.67803582  0.19024418     0.81200
Zn659      Zn  0.25621876  0.95601901  0.50153837     1.49700
Zn660      Zn  0.25951586  0.50157120  0.04575783     1.49400
Zn661      Zn  0.28840407  0.52814803  0.44533754     1.49100
Zn662      Zn  0.22789269  0.53606401  0.47241705     1.49500
O663        O  0.24874686  0.50536656  0.98642488    -1.80000
O664        O  0.22160101  0.91187425  0.04758416    -0.70700
O665        O  0.31540851  0.52316819  0.04494485    -0.70500
O666        O  0.33817672  0.03294378  0.48002184    -0.70000
O667        O  0.19675949  0.93992875  0.08168255    -0.70700
O668        O  0.31069466  0.97302507  0.50143648    -0.70300
O669        O  0.33455111  0.53796282  0.97705623    -0.70900
O670        O  0.26435726  0.59114105  0.44782534    -0.70300
O671        O  0.23718682  0.52690949  0.07828125    -0.71000
O672        O  0.30093459  0.57639910  0.41324900    -0.70400
O673        O  0.20319337  0.53389141  0.02743528    -0.70900
O674        O  0.22496603  0.97362630  0.41039296    -0.70800
O675        O  0.23849269  0.93556715  0.44283096    -0.70600
C676        C  0.20000216  0.91125925  0.07726321     0.81200
C677        C  0.34041173  0.53426773  0.01586529     0.81700
C678        C  0.33825435  0.00272266  0.48617961     0.80700
C679        C  0.29005359  0.59946399  0.42002003     0.81000
C680        C  0.20906107  0.52899893  0.06609276     0.82200
C681        C  0.21593184  0.94675027  0.43567063     0.81200
Zn682      Zn  0.20032082  0.73226988  0.04262928     1.49700
Zn683      Zn  0.27766722  0.73873519  0.01373076     1.49400
Zn684      Zn  0.23394787  0.74011114  0.44138263     1.49100
Zn685      Zn  0.25236927  0.80516557  0.01039331     1.49500
O686        O  0.24125493  0.75355930  0.50124528    -1.80000
O687        O  0.21423631  0.70596718  0.08362944    -0.70700
O688        O  0.30048945  0.72227547  0.46338361    -0.70500
O689        O  0.17919282  0.70151116  0.44080483    -0.70000
O690        O  0.24429371  0.68799149  0.04137431    -0.70700
O691        O  0.15798388  0.69322860  0.50844519    -0.70300
O692        O  0.26011626  0.71344534  0.41331783    -0.70900
O693        O  0.27751068  0.83262664  0.45982609    -0.70300
O694        O  0.31605254  0.78285861  0.04886015    -0.71000
O695        O  0.26025073  0.78945515  0.40868340    -0.70400
O696        O  0.29683609  0.82454476  0.04398530    -0.70900
O697        O  0.21754157  0.81861812  0.04606244    -0.70800
O698        O  0.18527631  0.76512996  0.07954996    -0.70600
C699        C  0.21757845  0.68026563  0.06679307     0.81200
C700        C  0.28818959  0.71136978  0.42560059     0.81700
C701        C  0.15450937  0.68369252  0.46949952     0.80700
C702        C  0.28015628  0.82290280  0.42229175     0.81000
C703        C  0.31958003  0.81484468  0.05622068     0.82200
C704        C  0.19452924  0.79931260  0.07555470     0.81200
C705        C  0.32981032  0.67836288  0.33308325     0.49500
H706        H  0.33150413  0.67968830  0.29782463     0.00500
C707        C  0.32636100  0.67526177  0.41565086     0.49600
H708        H  0.32487063  0.67360665  0.45090460     0.00500
C709        C  0.31032791  0.63722634  0.35012992    -0.12800
C710        C  0.36935244  0.69977318  0.35462210    -0.12900
C711        C  0.30705128  0.69583110  0.35183279    -0.13300
C712        C  0.30746069  0.63566814  0.39438745    -0.13300
C713        C  0.36764241  0.69719892  0.39893188    -0.12800
C714        C  0.30636609  0.69536674  0.39646519    -0.13200
C715        C  0.34222458  0.87765392  0.28403617    -0.09200
C716        C  0.36561208  0.90336860  0.30347068    -0.10700
C717        C  0.34418294  0.97799106  0.35910753    -0.09200
C718        C  0.31311677  0.97049536  0.34854256    -0.10700
C719        C  0.34110519  0.87599229  0.38717496    -0.09200
C720        C  0.31113018  0.85008577  0.39767134    -0.10700
C721        C  0.38244321  0.99023070  0.44311641    -0.09200
C722        C  0.36797092  0.99983838  0.46884901    -0.10700
C723        C  0.18673632  0.64274825  0.07003741    -0.09200
C724        C  0.15765678  0.61379894  0.07495451    -0.10700
C725        C  0.15522299  0.64674825  0.16889670    -0.09200
C726        C  0.13049866  0.61932675  0.15299892    -0.10700
C727        C  0.14906640  0.52122541  0.21453912    -0.09200
C728        C  0.12538973  0.52062984  0.19215936    -0.10700
C729        C  0.18038431  0.52192273  0.09563421    -0.09200
C730        C  0.15146235  0.51700292  0.10967912    -0.10700
C731        C  0.36837199  0.53396523  0.12792346    -0.09200
C732        C  0.34320170  0.53898597  0.13737432    -0.10700
C733        C  0.37651667  0.54208919  0.02750767    -0.09200
C734        C  0.40305517  0.54750569  0.04773572    -0.10700
C735        C  0.46563996  0.63248006  0.22355804    -0.09200
C736        C  0.46174315  0.60701645  0.20234157    -0.10700
C737        C  0.46582808  0.66824549  0.11452900    -0.09200
C738        C  0.47191359  0.64371850  0.12357804    -0.10700
C739        C  0.48787020  0.82972571  0.15419864    -0.09200
C740        C  0.49068971  0.85745777  0.13907740    -0.10700
C741        C  0.48520952  0.88319771  0.05645190    -0.09200
C742        C  0.48647904  0.86105167  0.03309921    -0.10700
C743        C  0.38490794  0.83689777  0.16920629    -0.09200
C744        C  0.35614392  0.80759817  0.17403545    -0.10700
C745        C  0.37905380  0.86699653  0.09305664    -0.09200
C746        C  0.35131548  0.84284855  0.07714369    -0.10700
C747        C  0.13412681  0.95717373  0.40761709    -0.09200
C748        C  0.15009139  0.96182737  0.37429591    -0.10700
C749        C  0.03677549  0.86273716  0.40965580    -0.09200
C750        C  0.03075244  0.84625709  0.37628912    -0.10700
C751        C  0.15983652  0.93631993  0.48045088    -0.09200
C752        C  0.18802274  0.93982653  0.46615720    -0.10700
C753        C  0.05810263  0.83786421  0.48347738    -0.09200
C754        C  0.05467704  0.80994381  0.46887542    -0.10700
C755        C  0.14886613  0.68899704  0.35061167    -0.09200
C756        C  0.12180078  0.65915603  0.35846468    -0.10700
C757        C  0.12235690  0.64988605  0.45747100    -0.09200
C758        C  0.09793144  0.62474480  0.43797170    -0.10700
C759        C  0.02387093  0.65528932  0.34226832    -0.09200
C760        C  0.03012121  0.68642516  0.33614817    -0.10700
C761        C  0.99314199  0.61540959  0.42035189    -0.09200
C762        C  0.98716477  0.63314051  0.44589437    -0.10700
C763        C  0.15913837  0.83722081  0.58692923     0.49500
H764        H  0.15881281  0.83752125  0.55161233     0.00500
C765        C  0.15982648  0.83658746  0.66941906     0.49600
H766        H  0.16052408  0.83588478  0.70468513     0.00500
C767        C  0.18056481  0.87785953  0.60670894    -0.13200
C768        C  0.11839128  0.81527274  0.60663578    -0.12900
C769        C  0.17942415  0.81736565  0.60444559    -0.13300
C770        C  0.18016524  0.87743437  0.65159157    -0.13300
C771        C  0.11901610  0.81629510  0.65152601    -0.12800
C772        C  0.17975887  0.81686096  0.64865696    -0.13200
C773        C  0.01956040  0.60620525  0.88904786     0.06400
C774        C  0.03416907  0.62558075  0.85026872     0.06300
C775        C  0.06566085  0.62696087  0.83308847    -0.14200
C776        C  0.09072081  0.62678259  0.86226386     0.06400
C777        C  0.07690337  0.60819342  0.90146839     0.06300
C778        C  0.03885981  0.59157921  0.91013494    -0.14200
H779        H  0.02896173  0.57900286  0.94120383     0.08400
H780        H  0.07680431  0.64220173  0.80351863     0.08400
C781        C  0.06347502  0.87476460  0.98146960     0.06400
C782        C  0.05152649  0.88640918  0.94519009     0.06300
C783        C  0.07182785  0.92382986  0.93374571    -0.14200
C784        C  0.10984764  0.94157657  0.94221445     0.06400
C785        C  0.12205415  0.92983801  0.97794553     0.06300
C786        C  0.09582724  0.90049076  0.00257885    -0.14200
H787        H  0.10570949  0.89084143  0.02885872     0.08400
H788        H  0.06292218  0.93261979  0.90578403     0.08400
C789        C  0.41455359  0.88338928  0.61498491     0.06400
C790        C  0.41951548  0.87160156  0.65514575     0.06300
C791        C  0.45533443  0.88120219  0.66721929    -0.14200
C792        C  0.47981321  0.88512837  0.63433917     0.06400
C793        C  0.47485415  0.89618244  0.59337673     0.06300
C794        C  0.44472794  0.90151516  0.58704957    -0.14200
H795        H  0.43951834  0.90782462  0.55512675     0.08400
H796        H  0.45861955  0.87152295  0.69814977     0.08400
Zn797      Zn  0.44974919  0.70209365  0.99689850     1.49700
Zn798      Zn  0.50412843  0.77285299  0.55776401     1.49400
Zn799      Zn  0.03893462  0.74069193  0.99803643     1.49100
Zn800      Zn  0.48395445  0.77394250  0.95296306     1.49500
O801        O  0.49428411  0.74956335  0.50198167    -1.80000
O802        O  0.43865638  0.68116300  0.55687082    -0.70700
O803        O  0.05598414  0.79974562  0.58224212    -0.70500
O804        O  0.02068706  0.68557829  0.98785693    -0.70000
O805        O  0.47926542  0.72936395  0.59721425    -0.70700
O806        O  0.96358476  0.66644533  0.96145182    -0.70300
O807        O  0.08038505  0.77044057  0.54947613    -0.70900
O808        O  0.02074361  0.77493415  0.91137823    -0.70300
O809        O  0.48776317  0.80971080  0.55228028    -0.71000
O810        O  0.06083328  0.76252958  0.94081161    -0.70400
O811        O  0.48608482  0.81978517  0.48182459    -0.70900
O812        O  0.43317571  0.74279674  0.91935290    -0.70800
O813        O  0.40227322  0.69521074  0.96265077    -0.70600
C814        C  0.45822387  0.69459502  0.59039583     0.81200
C815        C  0.08315000  0.79396196  0.57815563     0.81700
C816        C  0.99206278  0.66307703  0.96572564     0.80700
C817        C  0.04799902  0.78395091  0.93602745     0.81000
C818        C  0.48635389  0.82860238  0.52107576     0.82200
C819        C  0.40292708  0.71270699  0.92873866     0.81200
Zn820      Zn  0.47835680  0.72038403  0.80521616     1.49700
Zn821      Zn  0.50485900  0.74978524  0.70514941     1.49400
Zn822      Zn  0.46961515  0.78042253  0.77703889     1.49100
Zn823      Zn  0.05064083  0.78602834  0.77500223     1.49500
O824        O  0.50150863  0.76110532  0.76403868    -1.80000
O825        O  0.47089552  0.67565786  0.77489575    -0.70700
O826        O  0.48079582  0.77314256  0.67239657    -0.70500
O827        O  0.41454334  0.74330340  0.80151475    -0.70000
O828        O  0.48336004  0.69418368  0.70661724    -0.70700
O829        O  0.43004195  0.70760065  0.83688809    -0.70300
O830        O  0.47497362  0.80800262  0.72301499    -0.70900
O831        O  0.04983423  0.82020666  0.82236115    -0.70300
O832        O  0.05412482  0.77063503  0.67126446    -0.71000
O833        O  0.99112969  0.80967664  0.82044597    -0.70400
O834        O  0.08847031  0.81042555  0.72120412    -0.70900
O835        O  0.05995325  0.74610977  0.79970685    -0.70800
O836        O  0.01362296  0.72794050  0.84498109    -0.70600
C837        C  0.47376751  0.66959566  0.73591479     0.81200
C838        C  0.48034763  0.80217126  0.68445102     0.81700
C839        C  0.40656399  0.71786176  0.82959085     0.80700
C840        C  0.02353691  0.82475446  0.83703216     0.81000
C841        C  0.08538740  0.79842251  0.68265299     0.82200
C842        C  0.03867162  0.72362574  0.82824984     0.81200
C843        C  0.46883484  0.60985611  0.62527119     0.06400
C844        C  0.45680965  0.58896735  0.66324709     0.06300
C845        C  0.42682725  0.55240633  0.66156376    -0.14200
C846        C  0.40620214  0.54111509  0.62393657     0.06400
C847        C  0.42465959  0.55706635  0.58529283     0.06300
C848        C  0.45842747  0.59087529  0.58652868    -0.14200
H849        H  0.46886520  0.60676473  0.55720202     0.08400
H850        H  0.41313257  0.53891563  0.69117409     0.08400
C851        C  0.11843905  0.52145151  0.61548661     0.06400
C852        C  0.10773789  0.52507938  0.65714164     0.06300
C853        C  0.09740485  0.55165063  0.66431222    -0.14200
C854        C  0.11161772  0.58184830  0.63622375     0.06400
C855        C  0.12286309  0.57824343  0.59502805     0.06300
C856        C  0.11732050  0.54373663  0.58288210    -0.14200
H857        H  0.12680505  0.54158414  0.55135613     0.08400
H858        H  0.09123358  0.55584498  0.69672738     0.08400
C859        C  0.38738445  0.97209611  0.90863788     0.06400
C860        C  0.38240840  0.98272760  0.86773204     0.06300
C861        C  0.39085922  0.96701640  0.83371239    -0.14200
C862        C  0.37893755  0.92920592  0.83771680     0.06400
C863        C  0.36907068  0.91236186  0.87834052     0.06300
C864        C  0.38017677  0.93563588  0.91391448    -0.14200
H865        H  0.37452111  0.92345458  0.94559008     0.08400
H866        H  0.39202614  0.97804622  0.80203762     0.08400
Zn867      Zn  0.21800417  0.94857615  0.77478770     1.49700
Zn868      Zn  0.23724693  0.50107645  0.69250554     1.49400
Zn869      Zn  0.23470269  0.52230074  0.79695372     1.49100
Zn870      Zn  0.30719832  0.55450314  0.75507175     1.49500
O871        O  0.25820558  0.50944065  0.74943643    -1.80000
O872        O  0.19402360  0.90781986  0.72291982    -0.70700
O873        O  0.20222251  0.52024366  0.69635384    -0.70500
O874        O  0.18354422  0.00040650  0.81843817    -0.70000
O875        O  0.21897173  0.94442420  0.66742469    -0.70700
O876        O  0.18113518  0.94509480  0.82101844    -0.70300
O877        O  0.18986616  0.52003476  0.76657287    -0.70900
O878        O  0.31515956  0.60261628  0.78969858    -0.70300
O879        O  0.28287671  0.52349860  0.65547899    -0.71000
O880        O  0.26517847  0.57350274  0.82999328    -0.70400
O881        O  0.33012297  0.56282667  0.69774989    -0.70900
O882        O  0.27667445  0.99645653  0.84176048    -0.70800
O883        O  0.26279496  0.94698368  0.80368473    -0.70600
C884        C  0.19863053  0.91157571  0.68216447     0.81200
C885        C  0.18225696  0.52064372  0.72708730     0.81700
C886        C  0.17193700  0.96841833  0.83474642     0.80700
C887        C  0.29628947  0.60305759  0.82180343     0.81000
C888        C  0.31753136  0.54376579  0.66376140     0.82200
C889        C  0.28271784  0.97072503  0.83227177     0.81200
Zn890      Zn  0.26154546  0.71923051  0.73450330     1.49700
Zn891      Zn  0.26205623  0.76633626  0.80416907     1.49400
Zn892      Zn  0.26553249  0.79379823  0.70105925     1.49100
Zn893      Zn  0.19616575  0.74458899  0.73740094     1.49500
O894        O  0.24642350  0.75559929  0.74567745    -1.80000
O895        O  0.27567629  0.69701551  0.78744552    -0.70700
O896        O  0.29521945  0.82179767  0.80137632    -0.70500
O897        O  0.29758359  0.78446599  0.66326353    -0.70000
O898        O  0.29218437  0.74371574  0.83180561    -0.70700
O899        O  0.31237261  0.75234974  0.70696087    -0.70300
O900        O  0.30058149  0.83877383  0.73226317    -0.70900
O901        O  0.18245630  0.78133475  0.70858721    -0.70300
O902        O  0.21435455  0.73955720  0.83884549    -0.71000
O903        O  0.22985790  0.80464969  0.66443959    -0.70400
O904        O  0.16956954  0.72289974  0.79002403    -0.70900
O905        O  0.17615498  0.70118190  0.70151195    -0.70800
O906        O  0.21654852  0.68010440  0.70025715    -0.70600
C907        C  0.29099691  0.71326498  0.82259809     0.81200
C908        C  0.30975931  0.84561055  0.77114944     0.81700
C909        C  0.32181031  0.77930710  0.68126109     0.80700
C910        C  0.19821675  0.80009743  0.67509529     0.81000
C911        C  0.18049320  0.72023530  0.82672631     0.82200
C912        C  0.18514853  0.67742913  0.69111002     0.81200
Zn913      Zn  0.25408604  0.95375289  0.00001019     1.49700
Zn914      Zn  0.25781555  0.50066344  0.54552092     1.49400
Zn915      Zn  0.28996799  0.52939604  0.94570417     1.49100
Zn916      Zn  0.22941047  0.53738902  0.97340774     1.49500
O917        O  0.24723556  0.50417614  0.48603276    -1.80000
O918        O  0.22404237  0.91371982  0.54848097    -0.70700
O919        O  0.31401572  0.52349173  0.54525806    -0.70500
O920        O  0.33568302  0.03045716  0.97776379    -0.70000
O921        O  0.19904244  0.94135925  0.58315927    -0.70700
O922        O  0.30870548  0.97112655  0.00120808    -0.70300
O923        O  0.33293356  0.53677305  0.47707713    -0.70900
O924        O  0.26549110  0.59216964  0.94854418    -0.70300
O925        O  0.23386544  0.52478940  0.57734433    -0.71000
O926        O  0.30210011  0.57753781  0.91382311    -0.70400
O927        O  0.20013625  0.53136763  0.52582890    -0.70900
O928        O  0.22469762  0.97191696  0.90803407    -0.70800
O929        O  0.23717944  0.93325418  0.94096301    -0.70600
C930        C  0.20228241  0.91272162  0.57813476     0.81200
C931        C  0.33899937  0.53419242  0.51615549     0.81700
C932        C  0.33618929  0.00066960  0.98552645     0.80700
C933        C  0.29107034  0.60047649  0.92065088     0.81000
C934        C  0.20544010  0.52611112  0.56459332     0.82200
C935        C  0.21493857  0.94470972  0.93308229     0.81200
Zn936      Zn  0.19974370  0.73186846  0.54232815     1.49700
Zn937      Zn  0.27568554  0.73556899  0.51439857     1.49400
Zn938      Zn  0.23386403  0.74004777  0.94121621     1.49100
Zn939      Zn  0.25411386  0.80433221  0.51222386     1.49500
O940        O  0.24140281  0.75466987  0.00071743    -1.80000
O941        O  0.21034781  0.70263588  0.58289434    -0.70700
O942        O  0.30249776  0.72502278  0.96292297    -0.70500
O943        O  0.17979618  0.70003569  0.94199212    -0.70000
O944        O  0.24042367  0.68464411  0.54047294    -0.70700
O945        O  0.15875992  0.69158542  0.00972418    -0.70300
O946        O  0.26125658  0.71444326  0.91328446    -0.70900
O947        O  0.27287592  0.83280155  0.95679353    -0.70300
O948        O  0.31454563  0.77795720  0.55114190    -0.71000
O949        O  0.25759662  0.78864938  0.90728353    -0.70400
O950        O  0.29717257  0.82111049  0.54770687    -0.70900
O951        O  0.21941574  0.81897605  0.54626943    -0.70800
O952        O  0.18564167  0.76535466  0.57904028    -0.70600
C953        C  0.21370132  0.67697983  0.56587921     0.81200
C954        C  0.28978557  0.71314323  0.92548798     0.81700
C955        C  0.15547490  0.68176690  0.97083170     0.80700
C956        C  0.27579649  0.82259940  0.91960716     0.81000
C957        C  0.31899074  0.81013651  0.55964325     0.82200
C958        C  0.19567591  0.79973930  0.57519502     0.81200
C959        C  0.33071898  0.67886833  0.83345929     0.49500
H960        H  0.33239625  0.68007518  0.79819672     0.00500
C961        C  0.32737434  0.67618036  0.91605875     0.49600
H962        H  0.32591398  0.67467798  0.95132127     0.00500
C963        C  0.31080795  0.63776853  0.85067847    -0.12800
C964        C  0.37024669  0.69988763  0.85496521    -0.12900
C965        C  0.30856326  0.69701392  0.85209213    -0.13300
C966        C  0.30812942  0.63650381  0.89492581    -0.13300
C967        C  0.36860620  0.69749576  0.89926480    -0.12800
C968        C  0.30784924  0.69674162  0.89669582    -0.13200
C969        C  0.33954242  0.88113461  0.78153663    -0.09200
C970        C  0.36267865  0.90663002  0.80142614    -0.10700
C971        C  0.34737644  0.98146379  0.86006924    -0.09200
C972        C  0.31640670  0.97383262  0.84897575    -0.10700
C973        C  0.33583311  0.87604771  0.88381718    -0.09200
C974        C  0.30585113  0.85007296  0.89418526    -0.10700
C975        C  0.38244211  0.98956091  0.94494677    -0.09200
C976        C  0.36668551  0.99823112  0.96998833    -0.10700
C977        C  0.18316413  0.63941907  0.56977038    -0.09200
C978        C  0.15431497  0.61050618  0.57568236    -0.10700
C979        C  0.15670994  0.64533500  0.67081709    -0.09200
C980        C  0.13164048  0.61748706  0.65593718    -0.10700
C981        C  0.14834365  0.51876947  0.71515894    -0.09200
C982        C  0.12424302  0.51741960  0.69294240    -0.10700
C983        C  0.17614341  0.51813639  0.59374264    -0.09200
C984        C  0.14743690  0.51304260  0.60879228    -0.10700
C985        C  0.36891547  0.53473700  0.62877496    -0.09200
C986        C  0.34348897  0.53919578  0.63863178    -0.10700
C987        C  0.37539421  0.54299435  0.52807816    -0.09200
C988        C  0.40238938  0.54923941  0.54797869    -0.10700
C989        C  0.46712524  0.63395646  0.72405487    -0.09200
C990        C  0.46311166  0.60870826  0.70229473    -0.10700
C991        C  0.46367117  0.66942007  0.61576516    -0.09200
C992        C  0.47063084  0.64538270  0.62409974    -0.10700
C993        C  0.48892246  0.83120654  0.65463808    -0.09200
C994        C  0.49259939  0.85927962  0.63934191    -0.10700
C995        C  0.48623558  0.88422336  0.55632104    -0.09200
C996        C  0.48727615  0.86219084  0.53253362    -0.10700
C997        C  0.38882016  0.83793894  0.67347896    -0.09200
C998        C  0.36008560  0.80862661  0.67834091    -0.10700
C999        C  0.37895243  0.86232097  0.59562773    -0.09200
C1000       C  0.35111514  0.83731518  0.58080735    -0.10700
C1001       C  0.13289688  0.95541675  0.90483209    -0.09200
C1002       C  0.14958958  0.96020228  0.87204613    -0.10700
C1003       C  0.03488482  0.86196929  0.90894196    -0.09200
C1004       C  0.02934991  0.84568645  0.87551086    -0.10700
C1005       C  0.15850019  0.93441659  0.97734102    -0.09200
C1006       C  0.18657003  0.93772232  0.96293682    -0.10700
C1007       C  0.05677247  0.83771623  0.98280705    -0.09200
C1008       C  0.05394190  0.81005527  0.96817423    -0.10700
C1009       C  0.15405335  0.68934029  0.85132509    -0.09200
C1010       C  0.12778666  0.65900525  0.85916326    -0.10700
C1011       C  0.12406147  0.64735434  0.95863448    -0.09200
C1012       C  0.10088060  0.62254593  0.93750917    -0.10700
C1013       C  0.03168201  0.65795415  0.84020376    -0.09200
C1014       C  0.03664708  0.68876018  0.83493198    -0.10700
C1015       C  0.99903716  0.61666416  0.91664273    -0.09200
C1016       C  0.99283299  0.63459685  0.94159191    -0.10700
C1017       C  0.66302297  0.33749271  0.08073157     0.49500
H1018       H  0.66393316  0.33668903  0.04548259     0.00500
C1019       C  0.66175960  0.33800230  0.16321743     0.49600
H1020       H  0.66125368  0.33830968  0.19852817     0.00500
C1021       C  0.68291248  0.37829510  0.09846449    -0.13200
C1022       C  0.62190555  0.31661475  0.09832707    -0.12900
C1023       C  0.68334117  0.31830687  0.10185132    -0.13300
C1024       C  0.68346812  0.37885996  0.14340975    -0.13300
C1025       C  0.62119933  0.31609836  0.14325259    -0.12800
C1026       C  0.68202885  0.31797139  0.14608468    -0.13200
C1027       C  0.51752712  0.11301257  0.38644051     0.06400
C1028       C  0.52724752  0.10772152  0.34516011     0.06300
C1029       C  0.56346818  0.11454447  0.33880854    -0.14200
C1030       C  0.58760094  0.12594425  0.37360840     0.06400
C1031       C  0.57182565  0.11641308  0.41471133     0.06300
C1032       C  0.53438860  0.10559772  0.42019204    -0.14200
H1033       H  0.52441719  0.10525352  0.45226769     0.08400
H1034       H  0.57494811  0.11990779  0.30678543     0.08400
C1035       C  0.55456173  0.38491489  0.30680655     0.06400
C1036       C  0.56662521  0.37340212  0.27072627     0.06300
C1037       C  0.59616099  0.40012947  0.24665583    -0.14200
C1038       C  0.62160352  0.43229157  0.26832550     0.06400
C1039       C  0.60968070  0.44338591  0.30506120     0.06300
C1040       C  0.57218476  0.42277108  0.31619027    -0.14200
H1041       H  0.56321397  0.43112175  0.34442488     0.08400
H1042       H  0.60608184  0.39080475  0.22014348     0.08400
C1043       C  0.91705748  0.38460847  0.12046551     0.06400
C1044       C  0.90768529  0.37548156  0.16359396     0.06300
C1045       C  0.93642074  0.38775058  0.19300630    -0.14200
C1046       C  0.97064250  0.39317027  0.17853807     0.06400
C1047       C  0.97653936  0.39292122  0.13415634     0.06300
C1048       C  0.95389906  0.39943623  0.10733931    -0.14200
H1049       H  0.95949860  0.40162120  0.07338032     0.08400
H1050       H  0.92922866  0.38163645  0.22640717     0.08400
Zn1051     Zn  0.97378773  0.21726306  0.45792254     1.49700
Zn1052     Zn  0.00626774  0.25733513  0.05340277     1.49400
Zn1053     Zn  0.54991004  0.27766928  0.47400727     1.49100
Zn1054     Zn  0.96965628  0.28328663  0.47320857     1.49500
O1055       O  0.00081116  0.26118821  0.99258829    -1.80000
O1056       O  0.97336949  0.17724119  0.99585721    -0.70700
O1057       O  0.55511703  0.27581559  0.08211979    -0.70500
O1058       O  0.55209172  0.23326411  0.44583909    -0.70000
O1059       O  0.98640107  0.20248681  0.06152712    -0.70700
O1060       O  0.50351776  0.21967430  0.40612947    -0.70300
O1061       O  0.59125552  0.30341503  0.02699128    -0.70900
O1062       O  0.49663612  0.31060876  0.43084378    -0.70300
O1063       O  0.98505670  0.28590932  0.08285116    -0.71000
O1064       O  0.55239667  0.31398292  0.42752028    -0.70400
O1065       O  0.97167802  0.31204436  0.02832117    -0.70900
O1066       O  0.91721033  0.24687028  0.44087781    -0.70800
O1067       O  0.92276371  0.19767296  0.43050885    -0.70600
C1068       C  0.97884735  0.17599552  0.03538706     0.81200
C1069       C  0.58776914  0.29771706  0.06760880     0.81700
C1070       C  0.52860150  0.21311312  0.41720585     0.80700
C1071       C  0.52853452  0.32256952  0.41404511     0.81000
C1072       C  0.97862729  0.31063347  0.06780678     0.82200
C1073       C  0.90488021  0.21439377  0.42422612     0.81200
Zn1074     Zn  0.95117882  0.19588722  0.25193934     1.49700
Zn1075     Zn  0.00717376  0.26940054  0.19119648     1.49400
Zn1076     Zn  0.98595527  0.26726950  0.29840531     1.49100
Zn1077     Zn  0.54365065  0.24034108  0.24950971     1.49500
O1078       O  0.99793931  0.24514886  0.24799990    -1.80000
O1079       O  0.93489063  0.18705446  0.19203748    -0.70700
O1080       O  0.99103809  0.30591414  0.20054549    -0.70500
O1081       O  0.93450216  0.23812172  0.33215629    -0.70000
O1082       O  0.98002358  0.22655911  0.14995770    -0.70700
O1083       O  0.90574916  0.18757030  0.29299832    -0.70300
O1084       O  0.98896912  0.31278392  0.27185029    -0.70900
O1085       O  0.56437582  0.25906265  0.30789587    -0.70300
O1086       O  0.55697583  0.29600073  0.16648920    -0.71000
O1087       O  0.52494711  0.27093501  0.33989881    -0.70400
O1088       O  0.58580105  0.27272818  0.20202359    -0.70900
O1089       O  0.52683786  0.18572799  0.25084059    -0.70800
O1090       O  0.46774320  0.15908266  0.27520301    -0.70600
C1091       C  0.96025338  0.19388205  0.16503526     0.81200
C1092       C  0.98961888  0.32319462  0.23340287     0.81700
C1093       C  0.90492600  0.20693817  0.32434114     0.80700
C1094       C  0.55228105  0.28088357  0.31499229     0.81000
C1095       C  0.58622846  0.29382853  0.17185353     0.82200
C1096       C  0.49764251  0.15864307  0.26772945     0.81200
C1097       C  0.96719438  0.09244521  0.10376908     0.06400
C1098       C  0.97361635  0.10553750  0.14612562     0.06300
C1099       C  0.95702600  0.07952691  0.17879880    -0.14200
C1100       C  0.92397328  0.04632340  0.16955087     0.06400
C1101       C  0.91185487  0.03823834  0.12703252     0.06300
C1102       C  0.93799104  0.05642979  0.09500092    -0.14200
H1103       H  0.92917400  0.04903050  0.06225463     0.08400
H1104       H  0.96236433  0.08916948  0.21135116     0.08400
C1105       C  0.61362854  0.03011968  0.07599542     0.06400
C1106       C  0.61585905  0.02395535  0.11989136     0.06300
C1107       C  0.60669310  0.04344432  0.14870886    -0.14200
C1108       C  0.61490837  0.07903770  0.13650352     0.06400
C1109       C  0.62266241  0.08958416  0.09343248     0.06300
C1110       C  0.61257568  0.06172154  0.06326346    -0.14200
H1111       H  0.61702329  0.06967466  0.02995001     0.08400
H1112       H  0.60663734  0.03773494  0.18240831     0.08400
C1113       C  0.87383352  0.46335334  0.39392572     0.06400
C1114       C  0.89259064  0.47681856  0.35460680     0.06300
C1115       C  0.90720114  0.45713096  0.33430858    -0.14200
C1116       C  0.89210132  0.41970222  0.34541208     0.06400
C1117       C  0.87394926  0.40719929  0.38507813     0.06300
C1118       C  0.87361785  0.43305385  0.41281747    -0.14200
H1119       H  0.85889704  0.42284997  0.44287151     0.08400
H1120       H  0.91908933  0.46594844  0.30271811     0.08400
Zn1121     Zn  0.75603560  0.45792147  0.25134862     1.49700
Zn1122     Zn  0.75334435  0.99699496  0.19943443     1.49400
Zn1123     Zn  0.72568764  0.03216059  0.27485518     1.49100
Zn1124     Zn  0.78780291  0.02573196  0.29867474     1.49500
O1125       O  0.74555255  0.00081859  0.25967339    -1.80000
O1126       O  0.72572565  0.41537552  0.20285432    -0.70700
O1127       O  0.72736546  0.02079196  0.16863576    -0.70500
O1128       O  0.72209391  0.47718479  0.33770388    -0.70000
O1129       O  0.70153977  0.44264054  0.16563347    -0.70700
O1130       O  0.73477885  0.43705262  0.30901314    -0.70300
O1131       O  0.69706879  0.03011902  0.22204872    -0.70900
O1132       O  0.80452197  0.07547431  0.32808167    -0.70300
O1133       O  0.80905938  0.01581299  0.19837872    -0.71000
O1134       O  0.76144767  0.08624475  0.30373484    -0.70400
O1135       O  0.82868621  0.02834807  0.26649730    -0.70900
O1136       O  0.83208254  0.53359133  0.28509520    -0.70800
O1137       O  0.81107575  0.47576514  0.25981556    -0.70600
C1138       C  0.70469875  0.41405819  0.17194896     0.81200
C1139       C  0.70082288  0.02501770  0.18266503     0.81700
C1140       C  0.71325953  0.44983463  0.31331076     0.80700
C1141       C  0.79058413  0.09631853  0.32681786     0.81000
C1142       C  0.83343432  0.02367076  0.22771296     0.82200
C1143       C  0.83483194  0.50476895  0.28046064     0.81200
Zn1144     Zn  0.76130148  0.21741867  0.23638420     1.49700
Zn1145     Zn  0.75933375  0.26134722  0.30906562     1.49400
Zn1146     Zn  0.76539548  0.29492710  0.20874863     1.49100
Zn1147     Zn  0.69260674  0.24020945  0.23920129     1.49500
O1148       O  0.74390609  0.25327398  0.24975780    -1.80000
O1149       O  0.77928660  0.19574737  0.28641599    -0.70700
O1150       O  0.79972858  0.31541626  0.30834506    -0.70500
O1151       O  0.78324837  0.27473492  0.16497571    -0.70000
O1152       O  0.78575169  0.23474712  0.33694371    -0.70700
O1153       O  0.80912491  0.24946818  0.20216847    -0.70300
O1154       O  0.80922141  0.33485575  0.23998426    -0.70900
O1155       O  0.67847680  0.27391829  0.20079457    -0.70300
O1156       O  0.71075808  0.23708491  0.34292209    -0.71000
O1157       O  0.73400747  0.31332693  0.17510813    -0.70400
O1158       O  0.66606207  0.22293262  0.29425100    -0.70900
O1159       O  0.67253612  0.19235977  0.21070139    -0.70800
O1160       O  0.71583824  0.17513005  0.20798598    -0.70600
C1161       C  0.78968095  0.20785917  0.32429620     0.81200
C1162       C  0.81899950  0.33860974  0.27892341     0.81700
C1163       C  0.81212907  0.27546407  0.17826823     0.80700
C1164       C  0.69895910  0.30090822  0.17550533     0.81000
C1165       C  0.67662758  0.21959340  0.33112266     0.82200
C1166       C  0.68280110  0.16918582  0.20205338     0.81200
Zn1167     Zn  0.71305378  0.44521231  0.47404872     1.49700
Zn1168     Zn  0.73994065  0.99579770  0.05666680     1.49400
Zn1169     Zn  0.80928794  0.05103218  0.49691639     1.49100
Zn1170     Zn  0.73848349  0.01588440  0.45037929     1.49500
O1171       O  0.76044916  0.00314856  0.99989864    -1.80000
O1172       O  0.69086816  0.40806960  0.02773559    -0.70700
O1173       O  0.78653345  0.01587492  0.09250026    -0.70500
O1174       O  0.77191748  0.48457925  0.40383117    -0.70000
O1175       O  0.72751496  0.44382337  0.07910644    -0.70700
O1176       O  0.75402550  0.43756076  0.44812972    -0.70300
O1177       O  0.83167819  0.06095195  0.05314054    -0.70900
O1178       O  0.76747885  0.06691117  0.41692452    -0.70300
O1179       O  0.70712415  0.01725518  0.05032795    -0.71000
O1180       O  0.81654895  0.09710485  0.45819491    -0.70400
O1181       O  0.69529442  0.01451073  0.97947914    -0.70900
O1182       O  0.68736325  0.50348588  0.42881382    -0.70800
O1183       O  0.67778977  0.44515283  0.42717721    -0.70600
C1184       C  0.70118947  0.41187286  0.06708552     0.81200
C1185       C  0.82084395  0.03875432  0.08471629     0.81700
C1186       C  0.77617670  0.45913466  0.41943511     0.80700
C1187       C  0.79765299  0.09712637  0.42591313     0.81000
C1188       C  0.68775173  0.01680285  0.01841634     0.82200
C1189       C  0.67244731  0.47098025  0.41259577     0.81200
Zn1190     Zn  0.70814140  0.23409248  0.05059489     1.49700
Zn1191     Zn  0.78129619  0.23429156  0.01887701     1.49400
Zn1192     Zn  0.73571318  0.23591699  0.44476681     1.49100
Zn1193     Zn  0.75989033  0.30332975  0.01494153     1.49500
O1194       O  0.74606972  0.25194372  0.50306803    -1.80000
O1195       O  0.72658510  0.21346354  0.09309487    -0.70700
O1196       O  0.80391035  0.21988602  0.46431428    -0.70500
O1197       O  0.68031080  0.20044295  0.44902261    -0.70000
O1198       O  0.74769255  0.18597189  0.05177152    -0.70700
O1199       O  0.66455267  0.19348019  0.51879774    -0.70300
O1200       O  0.76070847  0.20784767  0.41657827    -0.70900
O1201       O  0.77820225  0.32874174  0.45923740    -0.70300
O1202       O  0.82313760  0.27895239  0.04863589    -0.71000
O1203       O  0.76102023  0.28393456  0.41021503    -0.70400
O1204       O  0.80589333  0.32233679  0.04638525    -0.70900
O1205       O  0.72511382  0.31903480  0.04673423    -0.70800
O1206       O  0.69268140  0.26734244  0.08314376    -0.70600
C1207       C  0.72350393  0.18403204  0.07799578     0.81200
C1208       C  0.79010567  0.20748108  0.42741400     0.81700
C1209       C  0.65736323  0.18438676  0.47984886     0.80700
C1210       C  0.78050685  0.31779833  0.42239924     0.81000
C1211       C  0.82879931  0.31179037  0.05531325     0.82200
C1212       C  0.70130527  0.30082075  0.07592503     0.81200
C1213       C  0.82825405  0.17166822  0.33394873     0.49500
H1214       H  0.82775783  0.17092623  0.29864853     0.00500
C1215       C  0.83000883  0.17323321  0.41653297     0.49600
H1216       H  0.83079072  0.17359467  0.45183510     0.00500
C1217       C  0.80842271  0.13175809  0.35378453    -0.12800
C1218       C  0.86949937  0.19284822  0.35230850    -0.12900
C1219       C  0.80744436  0.19114491  0.35315657    -0.13300
C1220       C  0.81102291  0.13228537  0.39804740    -0.13300
C1221       C  0.86982460  0.19538204  0.39664584    -0.12800
C1222       C  0.80812582  0.19161105  0.39779635    -0.13200
C1223       C  0.85396898  0.36962203  0.29063202    -0.09200
C1224       C  0.87863549  0.39389148  0.31091602    -0.10700
C1225       C  0.88227541  0.49726437  0.32675383    -0.09200
C1226       C  0.86408616  0.50390564  0.30271679    -0.10700
C1227       C  0.84176531  0.37025793  0.38948651    -0.09200
C1228       C  0.81139658  0.34418632  0.39771875    -0.10700
C1229       C  0.84125591  0.46559414  0.40396756    -0.09200
C1230       C  0.81055940  0.46060779  0.41059074    -0.10700
C1231       C  0.68783402  0.15052636  0.08120780    -0.09200
C1232       C  0.65640551  0.12436502  0.08380700    -0.10700
C1233       C  0.65494374  0.13464114  0.18577315    -0.09200
C1234       C  0.63205679  0.10737765  0.16781268    -0.10700
C1235       C  0.67195246  0.02088094  0.15397124    -0.09200
C1236       C  0.64483109  0.01742821  0.13557555    -0.10700
C1237       C  0.65445990  0.01625740  0.02777804    -0.09200
C1238       C  0.63009495  0.01751626  0.04594174    -0.10700
C1239       C  0.89621213  0.03243614  0.20162452    -0.09200
C1240       C  0.86778956  0.02686466  0.21713879    -0.10700
C1241       C  0.84865337  0.03470596  0.10698366    -0.09200
C1242       C  0.87491474  0.03151300  0.11697651    -0.10700
C1243       C  0.97173399  0.16695723  0.15851541    -0.09200
C1244       C  0.97802822  0.14180420  0.15452030    -0.10700
C1245       C  0.97807978  0.14390666  0.05094581    -0.09200
C1246       C  0.97668349  0.11873140  0.07041169    -0.10700
C1247       C  0.99085830  0.35705433  0.22556989    -0.09200
C1248       C  0.98782675  0.38035008  0.20728973    -0.10700
C1249       C  0.98494873  0.36593251  0.11599649    -0.09200
C1250       C  0.98225035  0.33985072  0.09581023    -0.10700
C1251       C  0.87346210  0.34134950  0.17392071    -0.09200
C1252       C  0.84670854  0.31023983  0.17604695    -0.10700
C1253       C  0.88925911  0.36409225  0.08963431    -0.09200
C1254       C  0.86292713  0.33952923  0.07214423    -0.10700
C1255       C  0.65896425  0.43982243  0.26658643    -0.09200
C1256       C  0.68700517  0.44340043  0.28108649    -0.10700
C1257       C  0.56219186  0.33700355  0.27049920    -0.09200
C1258       C  0.55897706  0.30889733  0.28469609    -0.10700
C1259       C  0.63401682  0.45935533  0.34154477    -0.09200
C1260       C  0.65068973  0.46461494  0.37466544    -0.10700
C1261       C  0.54059253  0.36129279  0.34376707    -0.09200
C1262       C  0.53604957  0.34461783  0.37654136    -0.10700
C1263       C  0.64926175  0.18948125  0.35660145    -0.09200
C1264       C  0.62360178  0.15939380  0.36724718    -0.10700
C1265       C  0.62206142  0.15387223  0.46984867    -0.09200
C1266       C  0.59568484  0.13149453  0.45035987    -0.10700
C1267       C  0.50936289  0.11295330  0.30937640    -0.09200
C1268       C  0.50051698  0.12868893  0.28445785    -0.10700
C1269       C  0.51742952  0.14733153  0.39360928    -0.09200
C1270       C  0.52474251  0.17852617  0.40290241    -0.10700
C1271       C  0.66218767  0.33559388  0.58003831     0.49500
H1272       H  0.66313203  0.33510783  0.54477219     0.00500
C1273       C  0.66088438  0.33534858  0.66251368     0.49600
H1274       H  0.66032339  0.33539603  0.69782769     0.00500
C1275       C  0.68217602  0.37626309  0.59814166    -0.13200
C1276       C  0.62107361  0.31448791  0.59753787    -0.12900
C1277       C  0.68239729  0.31615876  0.60080017    -0.13300
C1278       C  0.68282992  0.37640294  0.64310482    -0.13300
C1279       C  0.62031575  0.31340610  0.64245652    -0.12800
C1280       C  0.68115652  0.31548724  0.64511835    -0.13200
C1281       C  0.51740573  0.11157691  0.89105117     0.06400
C1282       C  0.52691456  0.10629587  0.84966672     0.06300
C1283       C  0.56340011  0.11405806  0.84277951    -0.14200
C1284       C  0.58777696  0.12572112  0.87733317     0.06400
C1285       C  0.57225302  0.11564883  0.91850298     0.06300
C1286       C  0.53472283  0.10434337  0.92446116    -0.14200
H1287       H  0.52489648  0.10367829  0.95662157     0.08400
H1288       H  0.57460296  0.11962772  0.81071657     0.08400
C1289       C  0.55425460  0.38053806  0.80451104     0.06400
C1290       C  0.56694369  0.36916046  0.76884575     0.06300
C1291       C  0.59730785  0.39593633  0.74580967    -0.14200
C1292       C  0.62230224  0.42792600  0.76806431     0.06400
C1293       C  0.60966152  0.43892920  0.80419677     0.06300
C1294       C  0.57198429  0.41830387  0.81443838    -0.14200
H1295       H  0.56253285  0.42654007  0.84241864     0.08400
H1296       H  0.60783820  0.38671769  0.71974608     0.08400
C1297       C  0.91094393  0.38155422  0.62616105     0.06400
C1298       C  0.90302132  0.36976771  0.66879606     0.06300
C1299       C  0.93266698  0.38173330  0.69680352    -0.14200
C1300       C  0.96720661  0.39011643  0.67987770     0.06400
C1301       C  0.97175896  0.39179535  0.63512711     0.06300
C1302       C  0.94748609  0.39819118  0.61122087    -0.14200
H1303       H  0.95206617  0.40213171  0.57710891     0.08400
H1304       H  0.92660876  0.37376509  0.73008206     0.08400
Zn1305     Zn  0.97331312  0.21537970  0.95947726     1.49700
Zn1306     Zn  0.00478912  0.25909271  0.55210995     1.49400
Zn1307     Zn  0.55003491  0.27772191  0.97557794     1.49100
Zn1308     Zn  0.97022423  0.28188039  0.97593560     1.49500
O1309       O  0.00036867  0.26302336  0.49111502    -1.80000
O1310       O  0.97458486  0.17971780  0.49460209    -0.70700
O1311       O  0.55432373  0.27388921  0.58092892    -0.70500
O1312       O  0.55211958  0.23244138  0.94985717    -0.70000
O1313       O  0.98468797  0.20417250  0.56058793    -0.70700
O1314       O  0.50473090  0.21937239  0.90844171    -0.70300
O1315       O  0.59071771  0.30192479  0.52607285    -0.70900
O1316       O  0.49619387  0.30928450  0.93039865    -0.70300
O1317       O  0.98316224  0.28795733  0.58022869    -0.71000
O1318       O  0.55178023  0.31213558  0.92725876    -0.70400
O1319       O  0.96982346  0.31345817  0.52497967    -0.70900
O1320       O  0.91741248  0.24614482  0.94365425    -0.70800
O1321       O  0.92243430  0.19679133  0.93208082    -0.70600
C1322       C  0.97883708  0.17820266  0.53438627     0.81200
C1323       C  0.58704427  0.29585640  0.56663530     0.81700
C1324       C  0.52910983  0.21226624  0.92088723     0.80700
C1325       C  0.52777004  0.32028542  0.91314438     0.81000
C1326       C  0.97628881  0.31223393  0.56466467     0.82200
C1327       C  0.90481689  0.21385253  0.92634711     0.81200
Zn1328     Zn  0.95001614  0.19400022  0.75391484     1.49700
Zn1329     Zn  0.00507195  0.26662781  0.69164411     1.49400
Zn1330     Zn  0.98502339  0.26630446  0.79878275     1.49100
Zn1331     Zn  0.54313443  0.23569248  0.74813016     1.49500
O1332       O  0.99651368  0.24336706  0.74889112    -1.80000
O1333       O  0.93309318  0.18361014  0.69417721    -0.70700
O1334       O  0.98918689  0.30321933  0.70000812    -0.70500
O1335       O  0.93378915  0.23817276  0.83283970    -0.70000
O1336       O  0.97729208  0.22340255  0.65121595    -0.70700
O1337       O  0.90513918  0.18641480  0.79563048    -0.70300
O1338       O  0.98887548  0.31185242  0.77116130    -0.70900
O1339       O  0.56486371  0.25485696  0.80602538    -0.70300
O1340       O  0.55614328  0.29265169  0.66644495    -0.71000
O1341       O  0.52650351  0.26758797  0.83913952    -0.70400
O1342       O  0.58491428  0.26829852  0.70002992    -0.70900
O1343       O  0.52516942  0.18063803  0.75043731    -0.70800
O1344       O  0.46727649  0.15642750  0.77798355    -0.70600
C1345       C  0.95823254  0.19078407  0.66667724     0.81200
C1346       C  0.98914646  0.32158817  0.73248216     0.81700
C1347       C  0.90439467  0.20659172  0.82613349     0.80700
C1348       C  0.55322742  0.27701369  0.81345330     0.81000
C1349       C  0.58535603  0.29025915  0.67087238     0.82200
C1350       C  0.49647184  0.15487906  0.76970361     0.81200
C1351       C  0.96669005  0.09295128  0.60049749     0.06400
C1352       C  0.97361279  0.10431267  0.64348218     0.06300
C1353       C  0.95660934  0.07706373  0.67483629    -0.14200
C1354       C  0.92228880  0.04556956  0.66486788     0.06400
C1355       C  0.90991152  0.03955856  0.62233550     0.06300
C1356       C  0.93613671  0.05804220  0.59045030    -0.14200
H1357       H  0.92697234  0.05224580  0.55756413     0.08400
H1358       H  0.96270804  0.08535416  0.70789260     0.08400
C1359       C  0.61293809  0.03066361  0.57438970     0.06400
C1360       C  0.61512185  0.02484232  0.61840548     0.06300
C1361       C  0.60523534  0.04410600  0.64668499    -0.14200
C1362       C  0.61309189  0.07952842  0.63414507     0.06400
C1363       C  0.62197850  0.09021925  0.59125938     0.06300
C1364       C  0.61218595  0.06232899  0.56122406    -0.14200
H1365       H  0.61701642  0.07022906  0.52790187     0.08400
H1366       H  0.60470997  0.03842507  0.68045412     0.08400
C1367       C  0.87496551  0.46150154  0.89381235     0.06400
C1368       C  0.89374170  0.47487311  0.85447440     0.06300
C1369       C  0.90761318  0.45466708  0.83384847    -0.14200
C1370       C  0.89126937  0.41695630  0.84422478     0.06400
C1371       C  0.87305676  0.40444081  0.88386270     0.06300
C1372       C  0.87370184  0.43048062  0.91212118    -0.14200
H1373       H  0.85897014  0.42032906  0.94218169     0.08400
H1374       H  0.91965517  0.46357240  0.80236279     0.08400
Zn1375     Zn  0.75690218  0.45494031  0.75116135     1.49700
Zn1376     Zn  0.75260767  0.99824654  0.69918793     1.49400
Zn1377     Zn  0.72572558  0.03386249  0.77474116     1.49100
Zn1378     Zn  0.78840761  0.02714706  0.79770867     1.49500
O1379       O  0.74545814  0.00233259  0.75957586    -1.80000
O1380       O  0.72589653  0.41245806  0.70238819    -0.70700
O1381       O  0.72645951  0.02184731  0.66835357    -0.70500
O1382       O  0.72393765  0.47421621  0.83832833    -0.70000
O1383       O  0.70156339  0.44008103  0.66608447    -0.70700
O1384       O  0.73616993  0.43395773  0.80906215    -0.70300
O1385       O  0.69715916  0.03248031  0.72179339    -0.70900
O1386       O  0.80516949  0.07652594  0.82776986    -0.70300
O1387       O  0.80816416  0.01688785  0.69688068    -0.71000
O1388       O  0.76156042  0.08720274  0.80495454    -0.70400
O1389       O  0.82895900  0.02939861  0.76457829    -0.70900
O1390       O  0.83280781  0.53105284  0.78502496    -0.70800
O1391       O  0.81220299  0.47331701  0.75947043    -0.70600
C1392       C  0.70456733  0.41137201  0.67189932     0.81200
C1393       C  0.70044458  0.02688337  0.68240506     0.81700
C1394       C  0.71467839  0.44669964  0.81400374     0.80700
C1395       C  0.79082646  0.09702020  0.82771529     0.81000
C1396       C  0.83299690  0.02459424  0.72556929     0.82200
C1397       C  0.83579080  0.50236374  0.78026622     0.81200
Zn1398     Zn  0.75725123  0.21305869  0.73948902     1.49700
Zn1399     Zn  0.75849990  0.26036628  0.80983204     1.49400
Zn1400     Zn  0.76373686  0.29091515  0.70777496     1.49100
Zn1401     Zn  0.69108437  0.23935992  0.74130007     1.49500
O1402       O  0.74208951  0.25097728  0.75094406    -1.80000
O1403       O  0.77499136  0.19211842  0.79049864    -0.70700
O1404       O  0.79812568  0.31450494  0.80736132    -0.70500
O1405       O  0.78042683  0.26785670  0.66614527    -0.70000
O1406       O  0.78604394  0.23491969  0.83812974    -0.70700
O1407       O  0.80506880  0.24217595  0.70461795    -0.70300
O1408       O  0.80776359  0.33177328  0.73819350    -0.70900
O1409       O  0.67788298  0.27369517  0.70264529    -0.70300
O1410       O  0.71036445  0.23652334  0.84448789    -0.71000
O1411       O  0.73247425  0.30856569  0.67225326    -0.70400
O1412       O  0.66500400  0.22266687  0.79683969    -0.70900
O1413       O  0.66973485  0.19157155  0.71231872    -0.70800
O1414       O  0.71107834  0.17174903  0.71113786    -0.70600
C1415       C  0.78802756  0.20652647  0.82698928     0.81200
C1416       C  0.81740679  0.33677206  0.77724680     0.81700
C1417       C  0.80888876  0.26824232  0.68033936     0.80700
C1418       C  0.69795063  0.29831939  0.67470481     0.81000
C1419       C  0.67604019  0.21935857  0.83346710     0.82200
C1420       C  0.67883763  0.16747074  0.70390396     0.81200
Zn1421     Zn  0.71489109  0.44576397  0.97357219     1.49700
Zn1422     Zn  0.73856267  0.99705471  0.55687412     1.49400
Zn1423     Zn  0.80961227  0.04855323  0.99527765     1.49100
Zn1424     Zn  0.73860320  0.01546370  0.95048081     1.49500
O1425       O  0.76050377  0.00482565  0.50069960    -1.80000
O1426       O  0.68909076  0.40704003  0.52811197    -0.70700
O1427       O  0.78457361  0.01799777  0.59344375    -0.70500
O1428       O  0.77475695  0.48541687  0.90402656    -0.70000
O1429       O  0.72780150  0.44167459  0.57873575    -0.70700
O1430       O  0.75613039  0.43822999  0.94828868    -0.70300
O1431       O  0.82780924  0.06607261  0.55586778    -0.70900
O1432       O  0.76776680  0.06661416  0.91770875    -0.70300
O1433       O  0.70567364  0.01806333  0.54921530    -0.71000
O1434       O  0.81706712  0.09601134  0.95879968    -0.70400
O1435       O  0.69421269  0.01407272  0.47821980    -0.70900
O1436       O  0.68761067  0.50215050  0.92692557    -0.70800
O1437       O  0.67917497  0.44428036  0.92654440    -0.70600
C1438       C  0.70046664  0.41015337  0.56700632     0.81200
C1439       C  0.81842858  0.04243372  0.58582783     0.81700
C1440       C  0.77857102  0.45972182  0.91973975     0.80700
C1441       C  0.79802797  0.09660808  0.92693342     0.81000
C1442       C  0.68630147  0.01673025  0.51691365     0.82200
C1443       C  0.67304866  0.46941162  0.91144185     0.81200
Zn1444     Zn  0.70829023  0.23340006  0.54814517     1.49700
Zn1445     Zn  0.78101890  0.23444896  0.51594450     1.49400
Zn1446     Zn  0.73564683  0.23572203  0.94780563     1.49100
Zn1447     Zn  0.75754497  0.30222711  0.51208196     1.49500
O1448       O  0.74661709  0.25240175  0.00614890    -1.80000
O1449       O  0.72729688  0.21294986  0.59016685    -0.70700
O1450       O  0.80300833  0.21832605  0.96739179    -0.70500
O1451       O  0.68056081  0.19950793  0.95221071    -0.70000
O1452       O  0.74728351  0.18535723  0.54760129    -0.70700
O1453       O  0.66462269  0.19370048  0.02177455    -0.70300
O1454       O  0.76093694  0.20824116  0.91897841    -0.70900
O1455       O  0.77921617  0.32838648  0.96081470    -0.70300
O1456       O  0.82084203  0.27886266  0.54825904    -0.71000
O1457       O  0.75920066  0.28290768  0.91219039    -0.70400
O1458       O  0.80194911  0.32101402  0.54587895    -0.70900
O1459       O  0.72189420  0.31671562  0.54322877    -0.70800
O1460       O  0.69336220  0.26623431  0.58231524    -0.70600
C1461       C  0.72379266  0.18346746  0.57481836     0.81200
C1462       C  0.78969925  0.20684690  0.93012755     0.81700
C1463       C  0.65763324  0.18378622  0.98307525     0.80700
C1464       C  0.77975121  0.31681466  0.92370292     0.81000
C1465       C  0.82493777  0.31094999  0.55614098     0.82200
C1466       C  0.70016368  0.29897945  0.57418548     0.81200
C1467       C  0.82798052  0.17187569  0.83606522     0.49500
H1468       H  0.82742817  0.17139244  0.80075719     0.00500
C1469       C  0.82989800  0.17286472  0.91864003     0.49600
H1470       H  0.83070739  0.17294108  0.95393982     0.00500
C1471       C  0.80850893  0.13194687  0.85540639    -0.12800
C1472       C  0.86922159  0.19301191  0.85434341    -0.12900
C1473       C  0.80679458  0.19075409  0.85568240    -0.13300
C1474       C  0.81119920  0.13206197  0.89966858    -0.13300
C1475       C  0.86969312  0.19535128  0.89873819    -0.12800
C1476       C  0.80771950  0.19113516  0.90029953    -0.13200
C1477       C  0.85239330  0.36795500  0.78849576    -0.09200
C1478       C  0.87711940  0.39168911  0.80923931    -0.10700
C1479       C  0.88353831  0.49542563  0.82666125    -0.09200
C1480       C  0.86518430  0.50176610  0.80253634    -0.10700
C1481       C  0.84034565  0.36786004  0.88825125    -0.09200
C1482       C  0.80993431  0.34238022  0.89757163    -0.10700
C1483       C  0.84306020  0.46479398  0.90428669    -0.09200
C1484       C  0.81267634  0.46058660  0.91098317    -0.10700
C1485       C  0.68814836  0.15009953  0.57907584    -0.09200
C1486       C  0.65648174  0.12448267  0.58231240    -0.10700
C1487       C  0.65082381  0.13406628  0.68560363    -0.09200
C1488       C  0.62879164  0.10766350  0.66577577    -0.10700
C1489       C  0.67156242  0.02290631  0.65368531    -0.09200
C1490       C  0.64450896  0.01916037  0.63473887    -0.10700
C1491       C  0.65274402  0.01577093  0.52576196    -0.09200
C1492       C  0.62876224  0.01732647  0.54442337    -0.10700
C1493       C  0.89474335  0.03211337  0.69724873    -0.09200
C1494       C  0.86693535  0.02726247  0.71383441    -0.10700
C1495       C  0.84719962  0.03818848  0.60523654    -0.09200
C1496       C  0.87338322  0.03432954  0.61339336    -0.10700
C1497       C  0.97020515  0.16434038  0.65944919    -0.09200
C1498       C  0.97734580  0.13990047  0.65414489    -0.10700
C1499       C  0.97853924  0.14637895  0.55012430    -0.09200
C1500       C  0.97701686  0.12073337  0.56869076    -0.10700
C1501       C  0.99104802  0.35562853  0.72388031    -0.09200
C1502       C  0.98701140  0.37847196  0.70603735    -0.10700
C1503       C  0.98068130  0.36631285  0.61379711    -0.09200
C1504       C  0.97875800  0.34109210  0.59249233    -0.10700
C1505       C  0.86989039  0.33435999  0.67822981    -0.09200
C1506       C  0.84356278  0.30295090  0.67938518    -0.10700
C1507       C  0.88260190  0.36226543  0.59565063    -0.09200
C1508       C  0.85725907  0.33838291  0.57629665    -0.10700
C1509       C  0.65981709  0.43584898  0.76731376    -0.09200
C1510       C  0.68796564  0.44001934  0.78224402    -0.10700
C1511       C  0.56226275  0.33265369  0.76863684    -0.09200
C1512       C  0.55938440  0.30471057  0.78292849    -0.10700
C1513       C  0.63360777  0.45558977  0.84084570    -0.09200
C1514       C  0.65070923  0.46188121  0.87379349    -0.10700
C1515       C  0.53948741  0.35674875  0.84120466    -0.09200
C1516       C  0.53480298  0.34076839  0.87449806    -0.10700
C1517       C  0.64892907  0.18955765  0.85955785    -0.09200
C1518       C  0.62350987  0.15950429  0.87075915    -0.10700
C1519       C  0.62258129  0.15284057  0.97343058    -0.09200
C1520       C  0.59623190  0.13041135  0.95401883    -0.10700
C1521       C  0.50827668  0.11053690  0.81401574    -0.09200
C1522       C  0.49930486  0.12548320  0.78818389    -0.10700
C1523       C  0.51750372  0.14600528  0.89837932    -0.09200
C1524       C  0.52495923  0.17729992  0.90749131    -0.10700
C1525       C  0.66270198  0.83765629  0.08791391     0.49500
H1526       H  0.66233224  0.83799309  0.05260000     0.00500
C1527       C  0.66331259  0.83695949  0.17035576     0.49600
H1528       H  0.66407569  0.83618211  0.20561566     0.00500
C1529       C  0.68524013  0.87829623  0.10769314    -0.13200
C1530       C  0.62192994  0.81669031  0.10771846    -0.12900
C1531       C  0.68184540  0.81662328  0.10523868    -0.13300
C1532       C  0.68467893  0.87783468  0.15262065    -0.13300
C1533       C  0.62250157  0.81753941  0.15266826    -0.12800
C1534       C  0.68220793  0.81631142  0.14945759    -0.13200
C1535       C  0.51168723  0.60483121  0.39294603     0.06400
C1536       C  0.52432901  0.62247072  0.35284689     0.06300
C1537       C  0.55376304  0.62136471  0.33319467    -0.14200
C1538       C  0.58045581  0.62216795  0.36056578     0.06400
C1539       C  0.56897167  0.60606341  0.40133818     0.06300
C1540       C  0.53153657  0.59021290  0.41278125    -0.14200
H1541       H  0.52346483  0.57914373  0.44475910     0.08400
H1542       H  0.56319220  0.63490981  0.30244475     0.08400
C1543       C  0.57107591  0.87850776  0.48479414     0.06400
C1544       C  0.56003460  0.89101616  0.44852616     0.06300
C1545       C  0.58091488  0.92856479  0.43794332    -0.14200
C1546       C  0.61883616  0.94543694  0.44657095     0.06400
C1547       C  0.63041628  0.93288740  0.48216981     0.06300
C1548       C  0.60368771  0.90332431  0.50617856    -0.14200
H1549       H  0.61300780  0.89291368  0.53223965     0.08400
H1550       H  0.57248261  0.93801407  0.41018206     0.08400
C1551       C  0.91167200  0.88014266  0.11674945     0.06400
C1552       C  0.91725883  0.86865090  0.15686441     0.06300
C1553       C  0.95318450  0.87752650  0.16754097    -0.14200
C1554       C  0.97595090  0.87942437  0.13363669     0.06400
C1555       C  0.97037300  0.89026955  0.09288556     0.06300
C1556       C  0.94128692  0.89738085  0.08790518    -0.14200
H1557       H  0.93558161  0.90361765  0.05612931     0.08400
H1558       H  0.95703902  0.86809651  0.19837217     0.08400
Zn1559     Zn  0.94477419  0.69784305  0.49862625     1.49700
Zn1560     Zn  0.99965216  0.76535716  0.05611638     1.49400
Zn1561     Zn  0.54041955  0.74374274  0.50147621     1.49100
Zn1562     Zn  0.97953211  0.76861784  0.45207664     1.49500
O1563       O  0.99164595  0.74414037  0.99943782    -1.80000
O1564       O  0.93954483  0.67242273  0.05132872    -0.70700
O1565       O  0.55930276  0.80118672  0.08427439    -0.70500
O1566       O  0.51998599  0.68799240  0.49245338    -0.70000
O1567       O  0.97672312  0.72025127  0.09414463    -0.70700
O1568       O  0.46244036  0.66996712  0.46827267    -0.70300
O1569       O  0.58464565  0.77404031  0.04883688    -0.70900
O1570       O  0.52434432  0.77861335  0.41389668    -0.70300
O1571       O  0.98129892  0.80109948  0.05164991    -0.71000
O1572       O  0.56252416  0.76377163  0.44373714    -0.70400
O1573       O  0.98016148  0.81239424  0.98140818    -0.70900
O1574       O  0.92846416  0.73687794  0.41900772    -0.70800
O1575       O  0.89738389  0.69076125  0.46406984    -0.70600
C1576       C  0.95768629  0.68550123  0.08579909     0.81200
C1577       C  0.58681620  0.79610858  0.07902127     0.81700
C1578       C  0.49038107  0.66559598  0.47164811     0.80700
C1579       C  0.55114052  0.78636911  0.43883881     0.81000
C1580       C  0.97965656  0.82028762  0.02082534     0.82200
C1581       C  0.89803578  0.70734590  0.42938691     0.81200
Zn1582     Zn  0.97177342  0.71425516  0.30290872     1.49700
Zn1583     Zn  0.99926905  0.74364337  0.20272395     1.49400
Zn1584     Zn  0.96305118  0.77391182  0.27534583     1.49100
Zn1585     Zn  0.55466689  0.78790375  0.27733816     1.49500
O1586       O  0.99509547  0.75485549  0.26161953    -1.80000
O1587       O  0.96481228  0.66967966  0.27262318    -0.70700
O1588       O  0.97330059  0.76499256  0.17021572    -0.70500
O1589       O  0.90836558  0.73738466  0.30177213    -0.70000
O1590       O  0.97871393  0.68815858  0.20440760    -0.70700
O1591       O  0.92388029  0.70116212  0.33577712    -0.70300
O1592       O  0.96719617  0.80003480  0.22054388    -0.70900
O1593       O  0.55612318  0.82326249  0.32486046    -0.70300
O1594       O  0.55687211  0.77378269  0.17236963    -0.71000
O1595       O  0.49844877  0.81546959  0.32384560    -0.70400
O1596       O  0.59274074  0.81118296  0.22319691    -0.70900
O1597       O  0.56077331  0.74586713  0.30253064    -0.70800
O1598       O  0.51483197  0.73163480  0.34709734    -0.70600
C1599       C  0.96859510  0.66363788  0.23387757     0.81200
C1600       C  0.97241715  0.79385066  0.18203002     0.81700
C1601       C  0.90061993  0.71187294  0.32970260     0.80700
C1602       C  0.53094407  0.82937131  0.33993121     0.81000
C1603       C  0.58890974  0.80013347  0.18410199     0.82200
C1604       C  0.53824900  0.72456809  0.33107704     0.81200
C1605       C  0.96449249  0.59912151  0.12577088     0.06400
C1606       C  0.95130601  0.58024235  0.16486419     0.06300
C1607       C  0.91983256  0.54452139  0.16483734    -0.14200
C1608       C  0.89920933  0.53258227  0.12727774     0.06400
C1609       C  0.91823973  0.54578022  0.08828980     0.06300
C1610       C  0.95325082  0.57825507  0.08831482    -0.14200
H1611       H  0.96456250  0.59242719  0.05820397     0.08400
H1612       H  0.90562230  0.53300809  0.19486090     0.08400
C1613       C  0.61557606  0.51924145  0.11400743     0.06400
C1614       C  0.60430842  0.52335129  0.15515221     0.06300
C1615       C  0.59424066  0.55026691  0.16109341    -0.14200
C1616       C  0.60939720  0.58026532  0.13265843     0.06400
C1617       C  0.62071808  0.57591656  0.09178650     0.06300
C1618       C  0.61479718  0.54105763  0.08060492    -0.14200
H1619       H  0.62449266  0.53833289  0.04943644     0.08400
H1620       H  0.58775161  0.55491688  0.19316761     0.08400
C1621       C  0.89200023  0.97061399  0.40853483     0.06400
C1622       C  0.88599595  0.97876212  0.36679634     0.06300
C1623       C  0.89368067  0.96125740  0.33404029    -0.14200
C1624       C  0.88309339  0.92406698  0.34104799     0.06400
C1625       C  0.87474324  0.90970468  0.38284866     0.06300
C1626       C  0.88616901  0.93496564  0.41657921    -0.14200
H1627       H  0.88156371  0.92464191  0.44909748     0.08400
H1628       H  0.89338344  0.97010030  0.30159059     0.08400
Zn1629     Zn  0.72216819  0.94799663  0.27654208     1.49700
Zn1630     Zn  0.73187162  0.49667413  0.19268073     1.49400
Zn1631     Zn  0.72895739  0.51797018  0.29679918     1.49100
Zn1632     Zn  0.80196540  0.55072345  0.25481026     1.49500
O1633       O  0.75309584  0.50551063  0.24951804    -1.80000
O1634       O  0.69739919  0.90795723  0.22405058    -0.70700
O1635       O  0.69632365  0.51534771  0.19617019    -0.70500
O1636       O  0.69074112  0.00221517  0.32079404    -0.70000
O1637       O  0.72665599  0.94434006  0.16955830    -0.70700
O1638       O  0.68655535  0.94602727  0.32349075    -0.70300
O1639       O  0.68433395  0.51640329  0.26626051    -0.70900
O1640       O  0.80954175  0.59785895  0.29055776    -0.70300
O1641       O  0.77746200  0.51931076  0.15560993    -0.71000
O1642       O  0.75939761  0.56836719  0.33062584    -0.70400
O1643       O  0.82458055  0.55994458  0.19715164    -0.70900
O1644       O  0.77911180  0.99221319  0.34591008    -0.70800
O1645       O  0.76638160  0.94498919  0.30428024    -0.70600
C1646       C  0.70384412  0.91174095  0.18356508     0.81200
C1647       C  0.67673537  0.51676028  0.22670707     0.81700
C1648       C  0.67871138  0.97026759  0.33753583     0.80700
C1649       C  0.79066007  0.59780347  0.32288836     0.81000
C1650       C  0.81209626  0.54003855  0.16371294     0.82200
C1651       C  0.78595763  0.96751905  0.33395386     0.81200
Zn1652     Zn  0.75944461  0.71522696  0.23526540     1.49700
Zn1653     Zn  0.75634127  0.76029057  0.30664965     1.49400
Zn1654     Zn  0.76535150  0.79083192  0.20424666     1.49100
Zn1655     Zn  0.69422297  0.74057935  0.23582965     1.49500
O1656       O  0.74389856  0.75130240  0.24710530    -1.80000
O1657       O  0.77239419  0.69225784  0.28816986    -0.70700
O1658       O  0.79179495  0.81566853  0.30645252    -0.70500
O1659       O  0.79562729  0.78007790  0.16540990    -0.70000
O1660       O  0.78481749  0.73643483  0.33489895    -0.70700
O1661       O  0.81100644  0.74864798  0.20910409    -0.70300
O1662       O  0.80174687  0.83361900  0.23750308    -0.70900
O1663       O  0.68174638  0.77789343  0.20746291    -0.70300
O1664       O  0.70660921  0.73318489  0.33855938    -0.71000
O1665       O  0.73203178  0.80461207  0.16766879    -0.70400
O1666       O  0.66496166  0.71743365  0.28613718    -0.70900
O1667       O  0.67561544  0.69858067  0.19840173    -0.70800
O1668       O  0.71527601  0.67665081  0.19929519    -0.70600
C1669       C  0.78548983  0.70716820  0.32454154     0.81200
C1670       C  0.80940088  0.83943335  0.27684991     0.81700
C1671       C  0.82020957  0.77562012  0.18352778     0.80700
C1672       C  0.69949645  0.79871288  0.17603315     0.81000
C1673       C  0.67347081  0.71420845  0.32383629     0.82200
C1674       C  0.68447906  0.67465591  0.18857795     0.81200
Zn1675     Zn  0.76223398  0.95703168  0.50344254     1.49700
Zn1676     Zn  0.75396116  0.49590765  0.04716829     1.49400
Zn1677     Zn  0.78306056  0.52241662  0.44691847     1.49100
Zn1678     Zn  0.72357454  0.53091612  0.47552984     1.49500
O1679       O  0.74377081  0.49917784  0.98747302    -1.80000
O1680       O  0.72833925  0.91286276  0.04846615    -0.70700
O1681       O  0.80969208  0.51662072  0.04703186    -0.70500
O1682       O  0.84213517  0.03254431  0.47625919    -0.70000
O1683       O  0.70640510  0.94262578  0.08462008    -0.70700
O1684       O  0.81704609  0.97488317  0.50445235    -0.70300
O1685       O  0.82923713  0.52998507  0.97908987    -0.70900
O1686       O  0.76015107  0.58610513  0.45070662    -0.70300
O1687       O  0.73108417  0.52136996  0.07854122    -0.71000
O1688       O  0.79558756  0.57072721  0.41481269    -0.70400
O1689       O  0.69741323  0.52760796  0.02665745    -0.70900
O1690       O  0.73135362  0.97372155  0.41157372    -0.70800
O1691       O  0.74544446  0.93632835  0.44462269    -0.70600
C1692       C  0.70778967  0.91299969  0.07897199     0.81200
C1693       C  0.83467391  0.52644829  0.01809894     0.81700
C1694       C  0.84331152  0.00332172  0.48549195     0.80700
C1695       C  0.78530077  0.59416309  0.42223412     0.81000
C1696       C  0.70291246  0.52307501  0.06559105     0.82200
C1697       C  0.72254982  0.94701827  0.43705778     0.81200
Zn1698     Zn  0.69968027  0.72903077  0.04255469     1.49700
Zn1699     Zn  0.77525268  0.73208105  0.01360013     1.49400
Zn1700     Zn  0.73171642  0.73797638  0.44135962     1.49100
Zn1701     Zn  0.75375436  0.80107024  0.01111510     1.49500
O1702       O  0.73794528  0.75054943  0.50150806    -1.80000
O1703       O  0.71066571  0.69941298  0.08226170    -0.70700
O1704       O  0.79568179  0.71673577  0.46584696    -0.70500
O1705       O  0.67669272  0.70064510  0.43854062    -0.70000
O1706       O  0.73990618  0.68107676  0.03904545    -0.70700
O1707       O  0.65361938  0.69299721  0.50525653    -0.70300
O1708       O  0.75727823  0.71033307  0.41442189    -0.70900
O1709       O  0.77620770  0.83040548  0.46090358    -0.70300
O1710       O  0.81361123  0.77397698  0.05131803    -0.71000
O1711       O  0.75984728  0.78761184  0.40948252    -0.70400
O1712       O  0.79629946  0.81713597  0.04688001    -0.70900
O1713       O  0.71981706  0.81643171  0.04566794    -0.70800
O1714       O  0.68707737  0.76361538  0.08027925    -0.70600
C1715       C  0.71326837  0.67357940  0.06446315     0.81200
C1716       C  0.78431084  0.70683552  0.42757680     0.81700
C1717       C  0.65103909  0.68336080  0.46640066     0.80700
C1718       C  0.77959330  0.82091487  0.42356356     0.81000
C1719       C  0.81773569  0.80603913  0.05979842     0.82200
C1720       C  0.69707014  0.79798849  0.07574445     0.81200
C1721       C  0.82505199  0.67296585  0.33505200     0.49500
H1722       H  0.82643788  0.67412256  0.29977312     0.00500
C1723       C  0.82223872  0.67018564  0.41764445     0.49600
H1724       H  0.82107376  0.66872562  0.45291221     0.00500
C1725       C  0.80531293  0.63198219  0.35227390    -0.12800
C1726       C  0.86469583  0.69406201  0.35595182    -0.12900
C1727       C  0.80296724  0.69092731  0.35402246    -0.13300
C1728       C  0.80276624  0.63044497  0.39656892    -0.13300
C1729       C  0.86343461  0.69172849  0.40029740    -0.12800
C1730       C  0.80238602  0.69055495  0.39863460    -0.13200
C1731       C  0.84090918  0.87353939  0.28831270    -0.09200
C1732       C  0.86542019  0.89916551  0.30677294    -0.10700
C1733       C  0.85134722  0.97818204  0.35891926    -0.09200
C1734       C  0.82026428  0.97087701  0.34882344    -0.10700
C1735       C  0.84174131  0.87369957  0.39049199    -0.09200
C1736       C  0.81130499  0.84810238  0.40003443    -0.10700
C1737       C  0.88750696  0.98983507  0.44341028    -0.09200
C1738       C  0.87275142  0.99987036  0.46825902    -0.10700
C1739       C  0.68201960  0.63628794  0.06719977    -0.09200
C1740       C  0.65272763  0.60766863  0.07243957    -0.10700
C1741       C  0.65624716  0.64307214  0.16738267    -0.09200
C1742       C  0.63057542  0.61583961  0.15224621    -0.10700
C1743       C  0.64337747  0.51601991  0.21446707    -0.09200
C1744       C  0.61991942  0.51552114  0.19176365    -0.10700
C1745       C  0.67384030  0.51602237  0.09463099    -0.09200
C1746       C  0.64491957  0.51112178  0.10876198    -0.10700
C1747       C  0.86280075  0.52873399  0.13090824    -0.09200
C1748       C  0.83805726  0.53461630  0.13963817    -0.10700
C1749       C  0.87021031  0.53289823  0.03017292    -0.09200
C1750       C  0.89642948  0.53772352  0.05062567    -0.10700
C1751       C  0.96228985  0.62801957  0.22264901    -0.09200
C1752       C  0.95820250  0.60202700  0.20233295    -0.10700
C1753       C  0.96291003  0.66023522  0.11152640    -0.09200
C1754       C  0.96851557  0.63555527  0.12152034    -0.10700
C1755       C  0.98118555  0.82278658  0.15217620    -0.09200
C1756       C  0.98626877  0.85163593  0.13774174    -0.10700
C1757       C  0.97939946  0.87630888  0.05562846    -0.09200
C1758       C  0.97978872  0.85344919  0.03263775    -0.10700
C1759       C  0.88675426  0.83515531  0.17586344    -0.09200
C1760       C  0.85826092  0.80563241  0.18100147    -0.10700
C1761       C  0.87600200  0.85842046  0.09785716    -0.09200
C1762       C  0.84891927  0.83299967  0.08236430    -0.10700
C1763       C  0.64184846  0.95890843  0.40910908    -0.09200
C1764       C  0.65761690  0.96313273  0.37573628    -0.10700
C1765       C  0.54378559  0.86716337  0.41170739    -0.09200
C1766       C  0.53802977  0.85079967  0.37828461    -0.10700
C1767       C  0.66668835  0.93707405  0.48194495    -0.09200
C1768       C  0.69460890  0.94008134  0.46748757    -0.10700
C1769       C  0.56252460  0.84086163  0.48613985    -0.09200
C1770       C  0.55816698  0.81273624  0.47106947    -0.10700
C1771       C  0.64494493  0.68344744  0.34684787    -0.09200
C1772       C  0.61760624  0.65374622  0.35433635    -0.10700
C1773       C  0.61905616  0.64953814  0.45390275    -0.09200
C1774       C  0.59493032  0.62340919  0.43521305    -0.10700
C1775       C  0.52433606  0.65628337  0.34352496    -0.09200
C1776       C  0.53241742  0.68812005  0.33805654    -0.10700
C1777       C  0.49370458  0.61728602  0.42198757    -0.09200
C1778       C  0.48939454  0.63614912  0.44756467    -0.10700
C1779       C  0.66159013  0.83904531  0.58844922     0.49500
H1780       H  0.66111144  0.83949091  0.55314080     0.00500
C1781       C  0.66266004  0.83801682  0.67089427     0.49600
H1782       H  0.66350399  0.83712690  0.70614174     0.00500
C1783       C  0.68438358  0.87960708  0.60839196    -0.13200
C1784       C  0.62091836  0.81795490  0.60838424    -0.12900
C1785       C  0.68061233  0.81786869  0.60545642    -0.13300
C1786       C  0.68400560  0.87896560  0.65328273    -0.13300
C1787       C  0.62181764  0.81894715  0.65329396    -0.12800
C1788       C  0.68125865  0.81713423  0.64963692    -0.13200
C1789       C  0.51727926  0.60859555  0.88959361     0.06400
C1790       C  0.53235173  0.62788509  0.85085714     0.06300
C1791       C  0.56280100  0.62746838  0.83322921    -0.14200
C1792       C  0.58743025  0.62617667  0.86216081     0.06400
C1793       C  0.57333577  0.60791636  0.90147922     0.06300
C1794       C  0.53548019  0.59263684  0.91036265    -0.14200
H1795       H  0.52538206  0.58019502  0.94148751     0.08400
H1796       H  0.57423026  0.64252089  0.80357108     0.08400
C1797       C  0.57008299  0.88068565  0.98439564     0.06400
C1798       C  0.55889390  0.89326886  0.94829045     0.06300
C1799       C  0.58008295  0.93077763  0.93745009    -0.14200
C1800       C  0.61803423  0.94743089  0.94596292     0.06400
C1801       C  0.62951668  0.93462288  0.98141613     0.06300
C1802       C  0.60261764  0.90557217  0.00582183    -0.14200
H1803       H  0.61187078  0.89516292  0.03196859     0.08400
H1804       H  0.57168093  0.94029979  0.90969401     0.08400
C1805       C  0.91069731  0.87653687  0.61746354     0.06400
C1806       C  0.91628825  0.86347527  0.65644987     0.06300
C1807       C  0.95229618  0.87270669  0.66706845    -0.14200
C1808       C  0.97607648  0.87738518  0.63304955     0.06400
C1809       C  0.97039554  0.88956649  0.59314403     0.06300
C1810       C  0.94035362  0.89533036  0.58898067    -0.14200
H1811       H  0.93459090  0.90255644  0.55780756     0.08400
H1812       H  0.95611309  0.86219656  0.69717060     0.08400
Zn1813     Zn  0.94672597  0.69545075  0.99422103     1.49700
Zn1814     Zn  0.00178173  0.76918326  0.55632749     1.49400
Zn1815     Zn  0.54256531  0.74534503  0.99915184     1.49100
Zn1816     Zn  0.97934129  0.76781415  0.95163517     1.49500
O1817       O  0.99147365  0.74562458  0.50092902    -1.80000
O1818       O  0.93655186  0.67718605  0.55719930    -0.70700
O1819       O  0.55808406  0.80190222  0.58482190    -0.70500
O1820       O  0.52301233  0.69013129  0.98795058    -0.70000
O1821       O  0.97948328  0.72533601  0.59565513    -0.70700
O1822       O  0.46495006  0.67129580  0.96493302    -0.70300
O1823       O  0.58312203  0.77391244  0.55052397    -0.70900
O1824       O  0.52533647  0.78073530  0.91301342    -0.70300
O1825       O  0.98343542  0.80457406  0.55080962    -0.71000
O1826       O  0.56499303  0.76762970  0.94223767    -0.70400
O1827       O  0.98125456  0.81423010  0.48029686    -0.70900
O1828       O  0.92885716  0.73654597  0.91802627    -0.70800
O1829       O  0.89896558  0.68789104  0.96019169    -0.70600
C1830       C  0.95766168  0.69057289  0.58961322     0.81200
C1831       C  0.58557240  0.79671933  0.57998121     0.81700
C1832       C  0.49333375  0.66757590  0.96738888     0.80700
C1833       C  0.55252046  0.78937418  0.93765849     0.81000
C1834       C  0.98134988  0.82302051  0.51949641     0.82200
C1835       C  0.89912475  0.70584929  0.92691946     0.81200
Zn1836     Zn  0.97470069  0.71485863  0.80291824     1.49700
Zn1837     Zn  0.00193512  0.74403360  0.70256478     1.49400
Zn1838     Zn  0.96433701  0.77337757  0.77338112     1.49100
Zn1839     Zn  0.55493468  0.79123276  0.77764480     1.49500
O1840       O  0.99738011  0.75526911  0.76118239    -1.80000
O1841       O  0.96758856  0.67012451  0.77301984    -0.70700
O1842       O  0.97573359  0.76459046  0.66910068    -0.70500
O1843       O  0.90941520  0.73563681  0.79847328    -0.70000
O1844       O  0.98231869  0.68891779  0.70505539    -0.70700
O1845       O  0.92648711  0.70185960  0.83520547    -0.70300
O1846       O  0.96944257  0.80000577  0.71856256    -0.70900
O1847       O  0.55542659  0.82637975  0.82485801    -0.70300
O1848       O  0.55680364  0.77463177  0.67371040    -0.71000
O1849       O  0.49689138  0.81627612  0.82425079    -0.70400
O1850       O  0.59219041  0.81436921  0.72321678    -0.70900
O1851       O  0.56360167  0.75094493  0.80263366    -0.70800
O1852       O  0.51709288  0.73334959  0.84748497    -0.70600
C1853       C  0.97192122  0.66429083  0.73439611     0.81200
C1854       C  0.97516498  0.79372874  0.68029053     0.81700
C1855       C  0.90228110  0.71108077  0.82747861     0.80700
C1856       C  0.52955171  0.83133337  0.84011058     0.81000
C1857       C  0.58846509  0.80198732  0.68475053     0.82200
C1858       C  0.54183734  0.72849002  0.83089856     0.81200
C1859       C  0.96579899  0.60408025  0.62391896     0.06400
C1860       C  0.95364262  0.58344262  0.66206919     0.06300
C1861       C  0.92274993  0.54738790  0.66093678    -0.14200
C1862       C  0.90196632  0.53604223  0.62345611     0.06400
C1863       C  0.92031676  0.55150277  0.58463758     0.06300
C1864       C  0.95446737  0.58492034  0.58535288    -0.14200
H1865       H  0.96490262  0.60051577  0.55585298     0.08400
H1866       H  0.90906468  0.53439045  0.69074040     0.08400
C1867       C  0.61448211  0.51635461  0.61889916     0.06400
C1868       C  0.60353952  0.51962273  0.66053961     0.06300
C1869       C  0.59309528  0.54607688  0.66804317    -0.14200
C1870       C  0.60649995  0.57610779  0.63978018     0.06400
C1871       C  0.61780123  0.57268847  0.59854334     0.06300
C1872       C  0.61308609  0.53851629  0.58638253    -0.14200
H1873       H  0.62272801  0.53660612  0.55487208     0.08400
H1874       H  0.58698849  0.55016374  0.70054268     0.08400
C1875       C  0.89180564  0.96945536  0.90483597     0.06400
C1876       C  0.88611677  0.97899683  0.86367448     0.06300
C1877       C  0.89316582  0.96186016  0.83003384    -0.14200
C1878       C  0.88128581  0.92420197  0.83562763     0.06400
C1879       C  0.87239819  0.90867263  0.87693113     0.06300
C1880       C  0.88449418  0.93309593  0.91148287    -0.14200
H1881       H  0.87951932  0.92193247  0.94362154     0.08400
H1882       H  0.89345508  0.97181931  0.79800232     0.08400
Zn1883     Zn  0.72182908  0.94950998  0.77673648     1.49700
Zn1884     Zn  0.73239996  0.49389323  0.69316367     1.49400
Zn1885     Zn  0.73058163  0.51506363  0.79767502     1.49100
Zn1886     Zn  0.80265327  0.54796216  0.75447478     1.49500
O1887       O  0.75393127  0.50249418  0.74973268    -1.80000
O1888       O  0.69680754  0.90922619  0.72461434    -0.70700
O1889       O  0.69678418  0.51240907  0.69792670    -0.70500
O1890       O  0.69039724  0.00401303  0.82031009    -0.70000
O1891       O  0.72578256  0.94545965  0.66992047    -0.70700
O1892       O  0.68633452  0.94791915  0.82367602    -0.70300
O1893       O  0.68541934  0.51264732  0.76835976    -0.70900
O1894       O  0.81026997  0.59584201  0.78883818    -0.70300
O1895       O  0.77776860  0.51641533  0.65544652    -0.71000
O1896       O  0.76118495  0.56628881  0.83040379    -0.70400
O1897       O  0.82510512  0.55660729  0.69697815    -0.70900
O1898       O  0.77980179  0.99387444  0.84519156    -0.70800
O1899       O  0.76596853  0.94613340  0.80402912    -0.70600
C1900       C  0.70313877  0.91289633  0.68411986     0.81200
C1901       C  0.67731772  0.51312859  0.72905736     0.81700
C1902       C  0.67835427  0.97217746  0.83731321     0.80700
C1903       C  0.79184917  0.59607348  0.82147886     0.81000
C1904       C  0.81246317  0.53719536  0.66326226     0.82200
C1905       C  0.78613904  0.96885413  0.83323777     0.81200
Zn1906     Zn  0.75702732  0.71295716  0.73458617     1.49700
Zn1907     Zn  0.76022482  0.76152525  0.80381362     1.49400
Zn1908     Zn  0.76413782  0.78910047  0.70082246     1.49100
Zn1909     Zn  0.69412892  0.74167151  0.73757555     1.49500
O1910       O  0.74392348  0.75095239  0.74545764    -1.80000
O1911       O  0.77085933  0.69037015  0.78744499    -0.70700
O1912       O  0.79453428  0.81665762  0.80124969    -0.70500
O1913       O  0.79462177  0.77765506  0.66286488    -0.70000
O1914       O  0.78952453  0.73791159  0.83103534    -0.70700
O1915       O  0.80785829  0.74419990  0.70631397    -0.70300
O1916       O  0.80065215  0.83332162  0.73197676    -0.70900
O1917       O  0.68215230  0.77970120  0.70861008    -0.70300
O1918       O  0.71285064  0.73605084  0.83889176    -0.71000
O1919       O  0.72976741  0.80234547  0.66478120    -0.70400
O1920       O  0.66793047  0.72182550  0.79085094    -0.70900
O1921       O  0.67190115  0.69723088  0.70277083    -0.70800
O1922       O  0.71079871  0.67433273  0.70160488    -0.70600
C1923       C  0.78716667  0.70688080  0.82211194     0.81200
C1924       C  0.80985485  0.84011517  0.77085517     0.81700
C1925       C  0.81817828  0.77143453  0.68080600     0.80700
C1926       C  0.69853881  0.79880823  0.67551936     0.81000
C1927       C  0.67880112  0.71824742  0.82720809     0.82200
C1928       C  0.67969615  0.67247469  0.69287186     0.81200
Zn1929     Zn  0.76100168  0.95480795  0.00098421     1.49700
Zn1930     Zn  0.75334820  0.49438362  0.54763578     1.49400
Zn1931     Zn  0.78539677  0.52297501  0.94727508     1.49100
Zn1932     Zn  0.72415973  0.53070549  0.97301798     1.49500
O1933       O  0.74245838  0.49847235  0.48844689    -1.80000
O1934       O  0.72885782  0.91482328  0.55044385    -0.70700
O1935       O  0.80955833  0.51727857  0.54624623    -0.70500
O1936       O  0.84048382  0.02928040  0.97104176    -0.70000
O1937       O  0.70501957  0.94373258  0.58475524    -0.70700
O1938       O  0.81569555  0.97207156  0.00044398    -0.70300
O1939       O  0.82778033  0.53095209  0.47786325    -0.70900
O1940       O  0.76016168  0.58522594  0.94701569    -0.70300
O1941       O  0.72931943  0.51808678  0.58040225    -0.71000
O1942       O  0.79869738  0.57147335  0.91526927    -0.70400
O1943       O  0.69641949  0.52654556  0.52937128    -0.70900
O1944       O  0.73027693  0.97356576  0.91054022    -0.70800
O1945       O  0.74258764  0.93439805  0.94236721    -0.70600
C1946       C  0.70721404  0.91446129  0.57991302     0.81200
C1947       C  0.83422525  0.52816242  0.51674026     0.81700
C1948       C  0.84184090  0.00030166  0.98105219     0.80700
C1949       C  0.78679985  0.59391378  0.92045148     0.81000
C1950       C  0.70147610  0.52061426  0.56797710     0.82200
C1951       C  0.72053494  0.94623953  0.93533756     0.81200
Zn1952     Zn  0.69531172  0.72976987  0.54093719     1.49700
Zn1953     Zn  0.77053450  0.73074144  0.51598696     1.49400
Zn1954     Zn  0.73321882  0.73657698  0.94095724     1.49100
Zn1955     Zn  0.75216819  0.80173266  0.51259324     1.49500
O1956       O  0.74080683  0.75023217  0.00068118    -1.80000
O1957       O  0.70150538  0.69762723  0.58166656    -0.70700
O1958       O  0.79980154  0.71849529  0.96252110    -0.70500
O1959       O  0.67852074  0.69786614  0.94151721    -0.70000
O1960       O  0.73348963  0.68007009  0.54160694    -0.70700
O1961       O  0.65715674  0.69026999  0.00905931    -0.70300
O1962       O  0.75901453  0.70951394  0.91287067    -0.70900
O1963       O  0.77722066  0.82929520  0.95857219    -0.70300
O1964       O  0.80945122  0.77221068  0.55376876    -0.71000
O1965       O  0.75916241  0.78583488  0.90769918    -0.70400
O1966       O  0.79458893  0.81707116  0.54826838    -0.70900
O1967       O  0.71941100  0.81809943  0.54705880    -0.70800
O1968       O  0.68319737  0.76430337  0.57839864    -0.70600
C1969       C  0.70614459  0.67227596  0.56611913     0.81200
C1970       C  0.78699259  0.70718287  0.92497649     0.81700
C1971       C  0.65371788  0.68037254  0.97019292     0.80700
C1972       C  0.77923436  0.81941193  0.92089647     0.81000
C1973       C  0.81504941  0.80494374  0.56155609     0.82200
C1974       C  0.69518785  0.79918853  0.57560817     0.81200
C1975       C  0.82635689  0.67186733  0.83244197     0.49500
H1976       H  0.82765701  0.67285057  0.79715874     0.00500
C1977       C  0.82374565  0.66957662  0.91507022     0.49600
H1978       H  0.82265547  0.66830961  0.95035092     0.00500
C1979       C  0.80644587  0.63085904  0.85006640    -0.12800
C1980       C  0.86611466  0.69290273  0.85336741    -0.12900
C1981       C  0.80459042  0.69031953  0.85133012    -0.13300
C1982       C  0.80405140  0.62979955  0.89433049    -0.13300
C1983       C  0.86476657  0.69058122  0.89770463    -0.12800
C1984       C  0.80432428  0.69026766  0.89592831    -0.13200
C1985       C  0.84046483  0.87511370  0.78103895    -0.09200
C1986       C  0.86417379  0.90058104  0.80036464    -0.10700
C1987       C  0.85165302  0.97901632  0.85673777    -0.09200
C1988       C  0.82052086  0.97201265  0.84740466    -0.10700
C1989       C  0.83937481  0.87244935  0.88416213    -0.09200
C1990       C  0.80957814  0.84662544  0.89542474    -0.10700
C1991       C  0.88737479  0.98790028  0.94043718    -0.09200
C1992       C  0.87172196  0.99716151  0.96485956    -0.10700
C1993       C  0.67669758  0.63444278  0.57168822    -0.09200
C1994       C  0.64847356  0.60524969  0.57870604    -0.10700
C1995       C  0.65041966  0.64024325  0.67357029    -0.09200
C1996       C  0.62556225  0.61197365  0.65914570    -0.10700
C1997       C  0.64351429  0.51178090  0.71790745    -0.09200
C1998       C  0.61954077  0.51120930  0.69619163    -0.10700
C1999       C  0.67235762  0.51310255  0.59722959    -0.09200
C2000       C  0.64366190  0.50817857  0.61215951    -0.10700
C2001       C  0.86446235  0.52913410  0.62829251    -0.09200
C2002       C  0.83861703  0.53297011  0.63805281    -0.10700
C2003       C  0.87075006  0.53702348  0.52792315    -0.09200
C2004       C  0.89795478  0.54346840  0.54744482    -0.10700
C2005       C  0.96561759  0.62874424  0.72291482    -0.09200
C2006       C  0.96113524  0.60341299  0.70105119    -0.10700
C2007       C  0.96325460  0.66512679  0.61441244    -0.09200
C2008       C  0.96924280  0.64038335  0.62265342    -0.10700
C2009       C  0.98436468  0.82257803  0.65003081    -0.09200
C2010       C  0.98856567  0.85113770  0.63562473    -0.10700
C2011       C  0.98076634  0.87822152  0.55482882    -0.09200
C2012       C  0.98158236  0.85629383  0.53070213    -0.10700
C2013       C  0.88579825  0.82927532  0.67420161    -0.09200
C2014       C  0.85680386  0.80006720  0.67843983    -0.10700
C2015       C  0.87478168  0.85607930  0.59877807    -0.09200
C2016       C  0.84691873  0.83139896  0.58364035    -0.10700
C2017       C  0.64109425  0.96099810  0.90855182    -0.09200
C2018       C  0.65705482  0.96520629  0.87532178    -0.10700
C2019       C  0.54206308  0.86930194  0.91169176    -0.09200
C2020       C  0.53615192  0.85279080  0.87835564    -0.10700
C2021       C  0.66526720  0.93754991  0.98050552    -0.09200
C2022       C  0.69278831  0.93973970  0.96586799    -0.10700
C2023       C  0.56235869  0.84326533  0.98510156    -0.09200
C2024       C  0.55881015  0.81545205  0.96999782    -0.10700
C2025       C  0.65178436  0.68764762  0.85161283    -0.09200
C2026       C  0.62493658  0.65762748  0.85905008    -0.10700
C2027       C  0.62149151  0.64657279  0.95801007    -0.09200
C2028       C  0.59759175  0.62192976  0.93734373    -0.10700
C2029       C  0.53206033  0.66157175  0.84154782    -0.09200
C2030       C  0.53856289  0.69299463  0.83691247    -0.10700
C2031       C  0.49786462  0.62016577  0.91749695    -0.09200
C2032       C  0.49270714  0.63859569  0.94280891    -0.10700
loop_ 
_geom_bond_atom_site_label_1 
_geom_bond_atom_site_label_2 
_geom_bond_distance 
_geom_bond_site_symmetry_2 
_ccdc_geom_bond_type 
C1            H2   1.110       .  S
C1            C7   1.577       .  S
C1            C6   1.576       .  S
C1            C5   1.568       .  S
C3            H4   1.111       .  S
C3            C9   1.585       .  S
C3            C8   1.593       .  S
C3           C10   1.552       .  S
C5            C8   1.413       .  D
C5          C168   1.559       .  S
C6            C9   1.414       .  D
C6           C53   1.560       .  S
C7           C10   1.394       .  D
C7          C196   1.523       .  S
C8          C122   1.556       .  S
C9           C79   1.559       .  S
C10         C148   1.536       .  S
C11          C12   1.411       .  A
C11          C16   1.392       .  A
C11         C253   1.450       .  S
C12          C13   1.399       .  A
C12         C251   1.428       .  S
C13          C14   1.396       .  A
C13          H18   1.086       .  S
C14          C15   1.412       .  A
C14         C248   1.451       .  S
C15          C16   1.396       .  A
C15         C250   1.417       .  S
C16          H17   1.087       .  S
C19          C20   1.419       .  A
C19          C24   1.390       .  A
C19         C245   1.440       .  S
C20          C21   1.390       .  A
C20         C241   1.431       .  S
C21          C22   1.392       .  A
C21          H26   1.086       .  S
C22          C23   1.424       .  A
C22         C239   1.423       .  S
C23          C24   1.390       .  A
C23         C243   1.449       .  S
C24          H25   1.087       .  S
C27          C28   1.410       .  A
C27          C32   1.395       .  A
C27         C237   1.417       .  S
C28          C29   1.388       .  A
C28         C235   1.448       .  S
C29          C30   1.398       .  A
C29          H34   1.088       .  S
C30          C31   1.416       .  A
C30         C232   1.416       .  S
C31          C32   1.392       .  A
C31         C233   1.453       .  S
C32          H33   1.087       .  S
Zn35         O51   2.045       .  S
Zn35        O294   1.953       .  S
Zn35       O1060   1.944       .  S
Zn35        O293   1.955       .  S
Zn36         O43   2.029       .  S
Zn36         O47   2.038       .  S
Zn36       O1057   2.107       .  S
Zn36         O39   1.943   1_554  S
Zn37         O42   2.100       .  S
Zn37         O48   2.070       .  S
Zn37        O299   2.204       .  S
Zn37       O1309   1.986       .  S
Zn38         O50   2.169       .  S
Zn38       O1062   1.975       .  S
Zn38        O303   2.028       .  S
Zn38        O293   1.933       .  S
O39        Zn289   1.956       .  S
O39       Zn1307   1.978       .  S
O39        Zn292   1.932       .  S
O40        Zn289   1.947       .  S
O40          C52   1.268   1_556  A
O41       Zn1052   2.090       .  S
O41          C53   1.273       .  A
O42          C54   1.280       .  A
O43          C52   1.284       .  A
O44       Zn1051   1.947   1_455  S
O44          C54   1.255       .  A
O45        Zn291   2.205   1_554  S
O45          C53   1.294       .  A
O46       Zn1054   1.974   1_455  S
O46          C55   1.272       .  A
O47          C56   1.281       .  A
O48          C55   1.287       .  A
O49        Zn292   2.041   1_554  S
O49          C56   1.282       .  A
O50          C57   1.288       .  A
O51          C57   1.268       .  A
C52         C229   1.409       .  S
C54         C254   1.439       .  S
C55         C246   1.427       .  S
C56         C234   1.445       .  S
C57         C205   1.529       .  S
Zn58         O63   1.980       .  S
Zn58         O67   2.163       .  S
Zn58       O1090   1.991       .  S
Zn58         O62   1.971       .  S
Zn59         O64   1.985       .  S
Zn59         O66   2.012       .  S
Zn59       O1086   2.124       .  S
Zn59         O62   1.947       .  S
Zn60         O65   2.116       .  S
Zn60         O68   2.005       .  S
Zn60       O1087   2.028       .  S
Zn60         O62   1.999       .  S
Zn61         O69   2.012       .  S
Zn61         O72   2.185       .  S
Zn61         O73   2.012       .  S
Zn61       O1078   2.048   1_455  S
O62       Zn1077   2.035       .  S
O63          C75   1.272       .  A
O64          C76   1.281       .  A
O65          C77   1.278       .  A
O66          C75   1.273       .  A
O67          C77   1.285       .  A
O68          C76   1.280       .  A
O69          C78   1.262       .  A
O70       Zn1075   2.125       .  S
O70          C79   1.277       .  A
O71       Zn1076   2.028   1_455  S
O71          C78   1.265       .  A
O72          C79   1.288       .  A
O73          C80   1.280       .  A
O74       Zn1074   1.998       .  S
O74          C80   1.276   1_655  A
C75         C227   1.434       .  S
C76         C231   1.406       .  S
C77         C202   1.547       .  S
C78         C242   1.419       .  S
C80         C252   1.415       .  S
C81          C82   1.411       .  A
C81          C86   1.397       .  A
C81         C230   1.420       .  S
C82          C83   1.393       .  A
C82         C228   1.449       .  S
C83          C84   1.397       .  A
C83          H88   1.086       .  S
C84          C85   1.411       .  A
C84         C223   1.419       .  S
C85          C86   1.393       .  A
C85         C226   1.449       .  S
C86          H87   1.086       .  S
C89          C90   1.416       .  A
C89          C94   1.400       .  A
C89         C222   1.415       .  S
C90          C91   1.391       .  A
C90         C220   1.454       .  S
C91          C92   1.394       .  A
C91          H96   1.085       .  S
C92          C93   1.408       .  A
C92         C218   1.415       .  S
C93          C94   1.388       .  A
C93         C216   1.447       .  S
C94          H95   1.085       .  S
C97          C98   1.417       .  A
C97         C102   1.391       .  A
C97         C213   1.440       .  S
C98          C99   1.400       .  A
C98         C209   1.432       .  S
C99         C100   1.397       .  A
C99         H104   1.085       .  S
C100        C101   1.413       .  A
C100        C208   1.427       .  S
C101        C102   1.391       .  A
C101        C211   1.444       .  S
C102        H103   1.088       .  S
Zn105       O110   2.191       .  S
Zn105       O114   2.012       .  S
Zn105       O121   2.038       .  S
Zn105       O617   2.049       .  S
Zn106       O111   2.043   1_565  S
Zn106       O117   2.028   1_565  S
Zn106       O621   2.105       .  S
Zn106       O109   1.946   1_565  S
Zn107       O115   2.046       .  S
Zn107       O118   2.178       .  S
Zn107       O620   1.978       .  S
Zn107       O109   1.936       .  S
Zn108       O116   2.041       .  S
Zn108       O119   1.947       .  S
Zn108       O628   1.947   1_545  S
Zn108       O109   1.954       .  S
O109       Zn613   1.979   1_545  S
O110        C122   1.291       .  A
O111        C123   1.281       .  A
O112       Zn615   2.032       .  S
O112        C124   1.264       .  A
O113       Zn614   2.120       .  S
O113        C122   1.278       .  A
O114        C124   1.261       .  A
O115        C123   1.282       .  A
O116        C125   1.267       .  A
O117        C126   1.284       .  A
O118        C125   1.289       .  A
O119        C126   1.268       .  A
O120       Zn616   1.979       .  S
O120        C127   1.272       .  A
O121        C127   1.283       .  A
C123        C219   1.448       .  S
C124        C240   1.414       .  S
C125        C201   1.530       .  S
C126        C224   1.409       .  S
C127        C210   1.423       .  S
Zn128       O133   2.136       .  S
Zn128       O137   2.058       .  S
Zn128       O144   2.020       .  S
Zn128       O132   2.002       .  S
Zn129       O134   2.012       .  S
Zn129       O136   2.107       .  S
Zn129       O140   2.042       .  S
Zn129       O132   1.943       .  S
Zn130       O135   1.948       .  S
Zn130       O138   1.996       .  S
Zn130       O141   2.099       .  S
Zn130       O132   1.970       .  S
Zn131       O139   2.146       .  S
Zn131       O142   1.984       .  S
Zn131       O143   1.930       .  S
Zn131       O132   1.940       .  S
O133        C145   1.282       .  A
O134        C146   1.283       .  A
O135        C147   1.257       .  A
O136        C145   1.275       .  A
O137        C147   1.272       .  A
O138        C146   1.276       .  A
O139        C148   1.284       .  A
O140        C149   1.279       .  A
O141        C148   1.275       .  A
O142        C149   1.273       .  A
O143        C150   1.266       .  A
O144        C150   1.281       .  A
C145        C203   1.544       .  S
C146        C207   1.418       .  S
C147        C236   1.433       .  S
C149        C247   1.436       .  S
C150        C217   1.402       .  S
Zn151       O160   2.056       .  S
Zn151       O167   2.082       .  S
Zn151       O410   2.191       .  S
Zn151       O917   1.964       .  S
Zn152       O157   2.005   1_565  S
Zn152       O163   1.971   1_565  S
Zn152       O667   2.111       .  S
Zn152       O155   1.950   1_564  S
Zn153       O164   2.157       .  S
Zn153       O666   1.991       .  S
Zn153       O415   1.980       .  S
Zn153       O409   1.972       .  S
Zn154       O162   2.113       .  S
Zn154       O419   2.020       .  S
Zn154       O674   2.031   1_545  S
Zn154       O409   2.008       .  S
O155       Zn913   2.033   1_546  S
O155       Zn407   1.970       .  S
O155       Zn408   2.004       .  S
O156       Zn405   2.185   1_554  S
O156        C168   1.294       .  A
O157        C169   1.271       .  A
O158       Zn661   1.948       .  S
O158        C170   1.260       .  A
O159       Zn660   2.125       .  S
O159        C168   1.279       .  A
O160        C170   1.277       .  A
O161       Zn407   1.981   1_554  S
O161        C169   1.272       .  A
O162        C171   1.278       .  A
O163        C172   1.280       .  A
O164        C171   1.285       .  A
O165       Zn408   2.020       .  S
O165        C172   1.282   1_556  A
O166       Zn662   1.995       .  S
O166        C173   1.274       .  A
O167        C173   1.288       .  A
C169        C225   1.434       .  S
C170        C214   1.428       .  S
C171        C204   1.545       .  S
C172        C221   1.406       .  S
C173        C244   1.439       .  S
Zn174       O179   1.946       .  S
Zn174       O190   2.076       .  S
Zn174       O437   1.969       .  S
Zn174       O432   1.963       .  S
Zn175       O182   2.051       .  S
Zn175       O186   2.017       .  S
Zn175       O434   2.114   1_554  S
Zn175       O432   1.987       .  S
Zn176       O181   2.007       .  S
Zn176       O184   2.113       .  S
Zn176       O187   2.026       .  S
Zn176       O178   1.932       .  S
Zn177       O188   1.947       .  S
Zn177       O189   2.125       .  S
Zn177       O439   1.954   1_554  S
Zn177       O432   1.935       .  S
O178       Zn428   1.963       .  S
O178       Zn429   1.984       .  S
O178       Zn431   1.932       .  S
O179        C191   1.259       .  A
O180       Zn429   2.125       .  S
O180        C192   1.281       .  A
O181        C193   1.283       .  A
O182        C191   1.271       .  A
O183       Zn428   1.968       .  S
O183        C193   1.272       .  A
O184        C192   1.277       .  A
O185       Zn431   1.946       .  S
O185        C194   1.268       .  A
O186        C195   1.281       .  A
O187        C194   1.276       .  A
O188        C195   1.269       .  A
O189        C196   1.280       .  A
O190        C196   1.272       .  A
C191        C215   1.433       .  S
C192        C206   1.540       .  S
C193        C249   1.406       .  S
C194        C212   1.423       .  S
C195        C238   1.405       .  S
C197        H198   1.110       .  S
C197        C203   1.576       .  S
C197        C202   1.586       .  S
C197        C201   1.561       .  S
C199        H200   1.111       .  S
C199        C205   1.557       .  S
C199        C204   1.581       .  S
C199        C206   1.574       .  S
C201        C204   1.397       .  D
C202        C205   1.396       .  D
C203        C206   1.405       .  D
C207        C208   1.195       .  T
C209        C210   1.198       .  T
C211        C212   1.203       .  T
C213        C214   1.204       .  T
C215        C216   1.207       .  T
C217        C218   1.187       .  T
C219        C220   1.214       .  T
C221        C222   1.188       .  T
C223        C224   1.190       .  T
C225        C226   1.208       .  T
C227        C228   1.207       .  T
C229        C230   1.190       .  T
C231        C232   1.188       .  T
C233        C234   1.212       .  T
C235        C236   1.207       .  T
C237        C238   1.188       .  T
C239        C240   1.191       .  T
C241        C242   1.195       .  T
C243        C244   1.209       .  T
C245        C246   1.202       .  T
C247        C248   1.209       .  T
C249        C250   1.188       .  T
C251        C252   1.195       .  T
C253        C254   1.211       .  T
C255        H256   1.110       .  S
C255        C261   1.575       .  S
C255        C260   1.574       .  S
C255        C259   1.566       .  S
C257        H258   1.111       .  S
C257        C263   1.589       .  S
C257        C262   1.595       .  S
C257        C264   1.551       .  S
C259        C262   1.416       .  D
C259        C422   1.560       .  S
C260        C263   1.415       .  D
C260        C307   1.561       .  S
C261        C264   1.393       .  D
C261        C450   1.519       .  S
C262        C376   1.559       .  S
C263        C333   1.562       .  S
C264        C402   1.537       .  S
C265        C266   1.410       .  A
C265        C270   1.393       .  A
C265        C507   1.450       .  S
C266        C267   1.400       .  A
C266        C505   1.428       .  S
C267        C268   1.396       .  A
C267        H272   1.085       .  S
C268        C269   1.411       .  A
C268        C502   1.449       .  S
C269        C270   1.396       .  A
C269        C504   1.417       .  S
C270        H271   1.086       .  S
C273        C274   1.418       .  A
C273        C278   1.391       .  A
C273        C499   1.438       .  S
C274        C275   1.389       .  A
C274        C495   1.432       .  S
C275        C276   1.392       .  A
C275        H280   1.088       .  S
C276        C277   1.424       .  A
C276        C493   1.422       .  S
C277        C278   1.390       .  A
C277        C497   1.449       .  S
C278        H279   1.089       .  S
C281        C282   1.411       .  A
C281        C286   1.395       .  A
C281        C491   1.419       .  S
C282        C283   1.389       .  A
C282        C489   1.446       .  S
C283        C284   1.397       .  A
C283        H288   1.086       .  S
C284        C285   1.415       .  A
C284        C486   1.416       .  S
C285        C286   1.392       .  A
C285        C487   1.451       .  S
C286        H287   1.086       .  S
Zn289      O1314   1.945       .  S
Zn289       O305   2.045       .  S
Zn290      O1311   2.107       .  S
Zn290       O297   2.034       .  S
Zn290       O301   2.039       .  S
Zn290       O293   1.946       .  S
Zn291       O296   2.103       .  S
Zn291       O302   2.065       .  S
Zn291      O1055   1.986       .  S
Zn292      O1316   1.976       .  S
Zn292       O304   2.181       .  S
O293      Zn1053   1.981       .  S
O294        C306   1.269       .  A
O295      Zn1306   2.093       .  S
O295        C307   1.273       .  A
O296        C308   1.281       .  A
O297        C306   1.284       .  A
O298      Zn1305   1.946   1_455  S
O298        C308   1.255       .  A
O299        C307   1.294       .  A
O300      Zn1308   1.971   1_455  S
O300        C309   1.271       .  A
O301        C310   1.282       .  A
O302        C309   1.287       .  A
O303        C310   1.281       .  A
O304        C311   1.290       .  A
O305        C311   1.267       .  A
C306        C483   1.412       .  S
C308        C508   1.439       .  S
C309        C500   1.426       .  S
C310        C488   1.442       .  S
C311        C459   1.533       .  S
Zn312       O317   1.985       .  S
Zn312       O321   2.170       .  S
Zn312      O1344   1.987       .  S
Zn312       O316   1.965       .  S
Zn313       O318   1.983       .  S
Zn313       O320   2.011       .  S
Zn313      O1340   2.122       .  S
Zn313       O316   1.936       .  S
Zn314       O319   2.112       .  S
Zn314       O322   2.002       .  S
Zn314      O1341   2.031       .  S
Zn314       O316   1.994       .  S
Zn315       O323   2.010       .  S
Zn315       O326   2.190       .  S
Zn315       O327   2.017       .  S
Zn315      O1332   2.046   1_455  S
O316      Zn1331   2.031       .  S
O317        C329   1.273       .  A
O318        C330   1.282       .  A
O319        C331   1.278       .  A
O320        C329   1.273       .  A
O321        C331   1.287       .  A
O322        C330   1.279       .  A
O323        C332   1.262       .  A
O324      Zn1329   2.124       .  S
O324        C333   1.277       .  A
O325      Zn1330   2.028   1_455  S
O325        C332   1.265       .  A
O326        C333   1.289       .  A
O327        C334   1.281   1_455  A
O328      Zn1328   1.997       .  S
O328        C334   1.276       .  A
C329        C481   1.433       .  S
C330        C485   1.405       .  S
C331        C456   1.549       .  S
C332        C496   1.420       .  S
C334        C506   1.415   1_655  S
C335        C336   1.411       .  A
C335        C340   1.398       .  A
C335        C484   1.422       .  S
C336        C337   1.392       .  A
C336        C482   1.448       .  S
C337        C338   1.397       .  A
C337        H342   1.088       .  S
C338        C339   1.413       .  A
C338        C477   1.421       .  S
C339        C340   1.394       .  A
C339        C480   1.449       .  S
C340        H341   1.086       .  S
C343        C344   1.417       .  A
C343        C348   1.399       .  A
C343        C476   1.417       .  S
C344        C345   1.392       .  A
C344        C474   1.452       .  S
C345        C346   1.394       .  A
C345        H350   1.087       .  S
C346        C347   1.409       .  A
C346        C472   1.417       .  S
C347        C348   1.388       .  A
C347        C470   1.448       .  S
C348        H349   1.086       .  S
C351        C352   1.417       .  A
C351        C356   1.391       .  A
C351        C467   1.442       .  S
C352        C353   1.399       .  A
C352        C463   1.431       .  S
C353        C354   1.397       .  A
C353        H358   1.087       .  S
C354        C355   1.414       .  A
C354        C462   1.427       .  S
C355        C356   1.392       .  A
C355        C465   1.444       .  S
C356        H357   1.088       .  S
Zn359       O364   2.203       .  S
Zn359       O368   2.015       .  S
Zn359       O375   2.041       .  S
Zn359       O871   2.050       .  S
Zn360       O365   2.040   1_565  S
Zn360       O875   2.100       .  S
Zn360       O371   2.025   1_565  S
Zn360       O363   1.943   1_565  S
Zn361       O874   1.971       .  S
Zn361       O369   2.037       .  S
Zn361       O372   2.166       .  S
Zn361       O363   1.934       .  S
Zn362       O370   2.032       .  S
Zn362       O373   1.951       .  S
Zn362       O882   1.945   1_545  S
Zn362       O363   1.949       .  S
O363       Zn867   1.980   1_545  S
O364        C376   1.293       .  A
O365        C377   1.281       .  A
O366       Zn869   2.034       .  S
O366        C378   1.264       .  A
O367       Zn868   2.120       .  S
O367        C376   1.278       .  A
O368        C378   1.261       .  A
O369        C377   1.281       .  A
O370        C379   1.266       .  A
O371        C380   1.283       .  A
O372        C379   1.288       .  A
O373        C380   1.269       .  A
O374       Zn870   1.975       .  S
O374        C381   1.272       .  A
O375        C381   1.284       .  A
C377        C473   1.445       .  S
C378        C494   1.413       .  S
C379        C455   1.524       .  S
C380        C478   1.410       .  S
C381        C464   1.422       .  S
Zn382       O387   2.139       .  S
Zn382       O391   2.052       .  S
Zn382       O398   2.020       .  S
Zn382       O386   2.010       .  S
Zn383       O388   2.011       .  S
Zn383       O390   2.118       .  S
Zn383       O394   2.040       .  S
Zn383       O386   1.945       .  S
Zn384       O389   1.946       .  S
Zn384       O392   2.002       .  S
Zn384       O395   2.106       .  S
Zn384       O386   1.976       .  S
Zn385       O393   2.141       .  S
Zn385       O396   1.974       .  S
Zn385       O397   1.936       .  S
Zn385       O386   1.943       .  S
O387        C399   1.281       .  A
O388        C400   1.282       .  A
O389        C401   1.257       .  A
O390        C399   1.276       .  A
O391        C401   1.271       .  A
O392        C400   1.276       .  A
O393        C402   1.282       .  A
O394        C403   1.279       .  A
O395        C402   1.276       .  A
O396        C403   1.272       .  A
O397        C404   1.267       .  A
O398        C404   1.281       .  A
C399        C457   1.547       .  S
C400        C461   1.419       .  S
C401        C490   1.432       .  S
C403        C501   1.432       .  S
C404        C471   1.404       .  S
Zn405       O414   2.055       .  S
Zn405       O421   2.078       .  S
Zn405       O663   1.962       .  S
Zn406       O411   2.011   1_565  S
Zn406       O921   2.114       .  S
Zn406       O417   1.973   1_565  S
Zn406       O409   1.963   1_565  S
Zn407       O920   1.986       .  S
Zn407       O418   2.159       .  S
Zn408       O416   2.125       .  S
Zn408       O928   2.036   1_545  S
O409       Zn659   2.034   1_545  S
O410        C422   1.295       .  A
O411        C423   1.271       .  A
O412       Zn915   1.949       .  S
O412        C424   1.261       .  A
O413       Zn914   2.125       .  S
O413        C422   1.278       .  A
O414        C424   1.276       .  A
O415        C423   1.272       .  A
O416        C425   1.280       .  A
O417        C426   1.279       .  A
O418        C425   1.285       .  A
O419        C426   1.281       .  A
O420       Zn916   1.997       .  S
O420        C427   1.274       .  A
O421        C427   1.288       .  A
C423        C479   1.437       .  S
C424        C468   1.429       .  S
C425        C458   1.549       .  S
C426        C475   1.407       .  S
C427        C498   1.439       .  S
Zn428       O433   1.945       .  S
Zn428       O444   2.072       .  S
Zn429       O436   2.056       .  S
Zn429       O440   2.027       .  S
Zn430       O435   2.006       .  S
Zn430       O438   2.107       .  S
Zn430       O441   2.022       .  S
Zn430       O432   1.931   1_556  S
Zn431       O442   1.942       .  S
Zn431       O443   2.115       .  S
O433        C445   1.258       .  A
O434        C446   1.280       .  A
O435        C447   1.283       .  A
O436        C445   1.272       .  A
O437        C447   1.272   1_554  A
O438        C446   1.276       .  A
O439        C448   1.269       .  A
O440        C449   1.283       .  A
O441        C448   1.275       .  A
O442        C449   1.269       .  A
O443        C450   1.278       .  A
O444        C450   1.271       .  A
C445        C469   1.434       .  S
C446        C460   1.535       .  S
C447        C503   1.407       .  S
C448        C466   1.424       .  S
C449        C492   1.407       .  S
C451        H452   1.111       .  S
C451        C457   1.577       .  S
C451        C456   1.586       .  S
C451        C455   1.558       .  S
C453        H454   1.111       .  S
C453        C459   1.559       .  S
C453        C458   1.584       .  S
C453        C460   1.573       .  S
C455        C458   1.396       .  D
C456        C459   1.398       .  D
C457        C460   1.404       .  D
C461        C462   1.195       .  T
C463        C464   1.198       .  T
C465        C466   1.204       .  T
C467        C468   1.204       .  T
C469        C470   1.207       .  T
C471        C472   1.188       .  T
C473        C474   1.212       .  T
C475        C476   1.189       .  T
C477        C478   1.191       .  T
C479        C480   1.208       .  T
C481        C482   1.207       .  T
C483        C484   1.192       .  T
C485        C486   1.188       .  T
C487        C488   1.211       .  T
C489        C490   1.206       .  T
C491        C492   1.190       .  T
C493        C494   1.190       .  T
C495        C496   1.195       .  T
C497        C498   1.208       .  T
C499        C500   1.201       .  T
C501        C502   1.208       .  T
C503        C504   1.188       .  T
C505        C506   1.195       .  T
C507        C508   1.211       .  T
C509        H510   1.111       .  S
C509        C515   1.551       .  S
C509        C514   1.586       .  S
C509        C513   1.583       .  S
C511        H512   1.110       .  S
C511        C517   1.569       .  S
C511        C516   1.569       .  S
C511        C518   1.576       .  S
C513        C516   1.414       .  D
C513        C676   1.549       .  S
C514        C517   1.413       .  D
C514        C561   1.552       .  S
C515        C518   1.392       .  D
C515        C704   1.534       .  S
C516        C630   1.559       .  S
C517        C587   1.557       .  S
C518        C656   1.520       .  S
C519        C520   1.418       .  A
C519        C524   1.398       .  A
C519        C761   1.435   1_455  S
C520        C521   1.393       .  A
C520        C759   1.435       .  S
C521        C522   1.391       .  A
C521        H526   1.088       .  S
C522        C523   1.411       .  A
C522        C756   1.447       .  S
C523        C524   1.395       .  A
C523        C758   1.423       .  S
C524        H525   1.086       .  S
C527        C528   1.423       .  A
C527        C532   1.391       .  A
C527        C753   1.422       .  S
C528        C529   1.390       .  A
C528        C749   1.450       .  S
C529        C530   1.391       .  A
C529        H534   1.087       .  S
C530        C531   1.420       .  A
C530        C747   1.440       .  S
C531        C532   1.389       .  A
C531        C751   1.430       .  S
C532        H533   1.087       .  S
C535        C536   1.408       .  A
C535        C540   1.398       .  A
C535        C745   1.417       .  S
C536        C537   1.385       .  A
C536        C743   1.453       .  S
C537        C538   1.400       .  A
C537        H542   1.088       .  S
C538        C539   1.416       .  A
C538        C740   1.430       .  S
C539        C540   1.394       .  A
C539        C741   1.438       .  S
C540        H541   1.087       .  S
Zn543       O802   1.985       .  S
Zn543      O1568   1.972       .  S
Zn543       O559   2.137       .  S
Zn543       O801   1.949       .  S
Zn544      O1565   2.112       .  S
Zn544       O551   2.003       .  S
Zn544       O555   1.987       .  S
Zn544       O547   1.945       .  S
Zn545       O550   2.045       .  S
Zn545       O807   2.202       .  S
Zn545       O556   2.014       .  S
Zn545      O1817   2.047   1_455  S
Zn546      O1570   2.035       .  S
Zn546       O811   2.073       .  S
Zn546       O558   2.125       .  S
Zn546       O801   2.007       .  S
O547       Zn797   1.948   1_554  S
O547      Zn1815   2.050   1_554  S
O547       Zn800   2.005   1_554  S
O548       Zn797   1.985   1_554  S
O548        C560   1.275       .  A
O549      Zn1560   2.109   1_455  S
O549        C561   1.277       .  A
O550        C562   1.284   1_455  A
O551        C560   1.274       .  A
O552      Zn1559   1.972       .  S
O552        C562   1.271       .  A
O553       Zn799   2.192   1_554  S
O553        C561   1.292       .  A
O554      Zn1562   2.036   1_455  S
O554        C563   1.264       .  A
O555        C564   1.279       .  A
O556        C563   1.261       .  A
O557       Zn800   2.065       .  S
O557        C564   1.285   1_556  A
O558        C565   1.281       .  A
O559        C565   1.284       .  A
C560        C737   1.427       .  S
C562        C762   1.424       .  S
C563        C754   1.412       .  S
C564        C742   1.426       .  S
C565        C713   1.545       .  S
Zn566       O571   1.968       .  S
Zn566       O575   2.055       .  S
Zn566      O1598   1.939       .  S
Zn566       O570   1.956       .  S
Zn567       O572   1.999       .  S
Zn567       O574   2.017       .  S
Zn567      O1594   2.120       .  S
Zn567       O570   1.936       .  S
Zn568       O573   2.162       .  S
Zn568       O576   1.996       .  S
Zn568      O1595   2.001       .  S
Zn568       O570   1.916       .  S
Zn569       O577   2.071       .  S
Zn569       O580   2.179       .  S
Zn569       O581   2.043       .  S
Zn569      O1586   1.973   1_455  S
O570      Zn1585   1.971       .  S
O571        C583   1.269       .  A
O572        C584   1.277       .  A
O573        C585   1.287       .  A
O574        C583   1.281       .  A
O575        C585   1.270       .  A
O576        C584   1.279       .  A
O577        C586   1.287       .  A
O578      Zn1583   2.124   1_455  S
O578        C587   1.278       .  A
O579      Zn1584   2.005       .  S
O579        C586   1.275   1_655  A
O580        C587   1.293       .  A
O581        C588   1.274       .  A
O582      Zn1582   1.936   1_455  S
O582        C588   1.258       .  A
C583        C735   1.414       .  S
C584        C739   1.422       .  S
C585        C710   1.529       .  S
C586        C750   1.439       .  S
C588        C760   1.424       .  S
C589        C590   1.411       .  A
C589        C594   1.396       .  A
C589        C738   1.445       .  S
C590        C591   1.395       .  A
C590        C736   1.425       .  S
C591        C592   1.395       .  A
C591        H596   1.088       .  S
C592        C593   1.411       .  A
C592        C731   1.445       .  S
C593        C594   1.396       .  A
C593        C734   1.425       .  S
C594        H595   1.089       .  S
C597        C598   1.415       .  A
C597        C602   1.400       .  A
C597        C730   1.432       .  S
C598        C599   1.394       .  A
C598        C728   1.439       .  S
C599        C600   1.400       .  A
C599        H604   1.086       .  S
C600        C601   1.412       .  A
C600        C726   1.419       .  S
C601        C602   1.388       .  A
C601        C724   1.452       .  S
C602        H603   1.087       .  S
C605        C606   1.410       .  A
C605        C610   1.399       .  A
C605        C721   1.425       .  S
C606        C607   1.390       .  A
C606        C717   1.453       .  S
C607        C608   1.396       .  A
C607        H612   1.088       .  S
C608        C609   1.413       .  A
C608        C716   1.415       .  S
C609        C610   1.396       .  A
C609        C719   1.450       .  S
C610        H611   1.088       .  S
Zn613       O618   2.199       .  S
Zn613       O622   2.067       .  S
Zn613       O629   2.104       .  S
Zn614       O619   1.997       .  S
Zn614       O625   2.009       .  S
Zn614       O617   1.943       .  S
Zn615       O623   2.057       .  S
Zn615       O626   2.112       .  S
Zn615       O617   2.002       .  S
Zn616       O624   2.151       .  S
Zn616       O627   1.989       .  S
Zn616       O617   1.953       .  S
O618        C630   1.295       .  A
O619        C631   1.281       .  A
O620        C632   1.273   1_545  A
O621        C630   1.275       .  A
O622        C632   1.287       .  A
O623        C631   1.285       .  A
O624        C633   1.285       .  A
O625        C634   1.275       .  A
O626        C633   1.279       .  A
O627        C634   1.275       .  A
O628        C635   1.256       .  A
O629        C635   1.280       .  A
C631        C727   1.426       .  S
C632        C748   1.428       .  S
C633        C709   1.544       .  S
C634        C732   1.429       .  S
C635        C718   1.442       .  S
Zn636       O641   2.136       .  S
Zn636       O645   2.043       .  S
Zn636       O652   2.056       .  S
Zn636       O640   1.954       .  S
Zn637       O642   2.004       .  S
Zn637       O644   2.098       .  S
Zn637       O648   2.047       .  S
Zn637       O640   1.929       .  S
Zn638       O643   1.966       .  S
Zn638       O646   1.962       .  S
Zn638       O649   2.105       .  S
Zn638       O640   1.963       .  S
Zn639       O647   2.082       .  S
Zn639       O650   1.932       .  S
Zn639       O651   1.913       .  S
Zn639       O640   1.921       .  S
O641        C653   1.285       .  A
O642        C654   1.282       .  A
O643        C655   1.265       .  A
O644        C653   1.276       .  A
O645        C655   1.272       .  A
O646        C654   1.272       .  A
O647        C656   1.274       .  A
O648        C657   1.278       .  A
O649        C656   1.276       .  A
O650        C657   1.265       .  A
O651        C658   1.264       .  A
O652        C658   1.287       .  A
C653        C711   1.537       .  S
C654        C715   1.404       .  S
C655        C744   1.435       .  S
C657        C755   1.425       .  S
C658        C725   1.407       .  S
Zn659       O918   2.162       .  S
Zn659       O668   2.003       .  S
Zn659       O675   2.010       .  S
Zn660       O665   2.024       .  S
Zn660       O671   2.006       .  S
Zn660       O663   1.944   1_554  S
Zn661       O923   1.972       .  S
Zn661       O672   2.065       .  S
Zn661       O917   1.957       .  S
Zn662       O670   2.150       .  S
Zn662       O927   1.991       .  S
Zn662       O917   1.919       .  S
O663       Zn915   1.959       .  S
O663       Zn916   1.920       .  S
O664       Zn913   2.170       .  S
O664        C676   1.287       .  A
O665        C677   1.282       .  A
O666        C678   1.275       .  A
O667        C676   1.276       .  A
O668        C678   1.278   1_565  A
O669       Zn915   1.968       .  S
O669        C677   1.269   1_556  A
O670        C679   1.285       .  A
O671        C680   1.277       .  A
O672        C679   1.271       .  A
O673       Zn916   1.984   1_554  S
O673        C680   1.277       .  A
O674        C681   1.264       .  A
O675        C681   1.263       .  A
C677        C733   1.415       .  S
C678        C722   1.412   1_545  S
C679        C712   1.529       .  S
C680        C729   1.420       .  S
C681        C752   1.418       .  S
Zn682       O687   1.961       .  S
Zn682       O945   1.989       .  S
Zn682       O698   2.118       .  S
Zn682       O940   1.977       .  S
Zn683       O942   2.133   1_554  S
Zn683       O690   2.041       .  S
Zn683       O694   2.041       .  S
Zn683       O940   1.977       .  S
Zn684       O689   2.014       .  S
Zn684       O692   2.105       .  S
Zn684       O695   2.047       .  S
Zn684       O686   1.944       .  S
Zn685       O947   1.973   1_554  S
Zn685       O696   1.918       .  S
Zn685       O697   2.122       .  S
Zn685       O940   1.936       .  S
O686       Zn936   1.970       .  S
O686       Zn937   1.970       .  S
O686       Zn939   1.930       .  S
O687        C699   1.264       .  A
O688       Zn937   2.128       .  S
O688        C700   1.282       .  A
O689        C701   1.282       .  A
O690        C699   1.271       .  A
O691       Zn936   1.976       .  S
O691        C701   1.273       .  A
O692        C700   1.275       .  A
O693       Zn939   1.971       .  S
O693        C702   1.271       .  A
O694        C703   1.285       .  A
O695        C702   1.279       .  A
O696        C703   1.264       .  A
O697        C704   1.281       .  A
O698        C704   1.278       .  A
C699        C723   1.435       .  S
C700        C714   1.539       .  S
C701        C757   1.415       .  S
C702        C720   1.435       .  S
C703        C746   1.404       .  S
C705        H706   1.111       .  S
C705        C711   1.574       .  S
C705        C710   1.572       .  S
C705        C709   1.571       .  S
C707        H708   1.111       .  S
C707        C713   1.571       .  S
C707        C712   1.571       .  S
C707        C714   1.571       .  S
C709        C712   1.396       .  D
C710        C713   1.397       .  D
C711        C714   1.404       .  D
C715        C716   1.187       .  T
C717        C718   1.213       .  T
C719        C720   1.209       .  T
C721        C722   1.193       .  T
C723        C724   1.208       .  T
C725        C726   1.191       .  T
C727        C728   1.201       .  T
C729        C730   1.198       .  T
C731        C732   1.206       .  T
C733        C734   1.193       .  T
C735        C736   1.192       .  T
C737        C738   1.205       .  T
C739        C740   1.198       .  T
C741        C742   1.201       .  T
C743        C744   1.208       .  T
C745        C746   1.189       .  T
C747        C748   1.202       .  T
C749        C750   1.209       .  T
C751        C752   1.194       .  T
C753        C754   1.190       .  T
C755        C756   1.204       .  T
C757        C758   1.193       .  T
C759        C760   1.201       .  T
C761        C762   1.200       .  T
C763        H764   1.111       .  S
C763        C769   1.553       .  S
C763        C768   1.587       .  S
C763        C767   1.585       .  S
C765        H766   1.110       .  S
C765        C771   1.568       .  S
C765        C770   1.568       .  S
C765        C772   1.576       .  S
C767        C770   1.412       .  D
C767        C930   1.548       .  S
C768        C771   1.412       .  D
C768        C815   1.555       .  S
C769        C772   1.391       .  D
C769        C958   1.532       .  S
C770        C884   1.558       .  S
C771        C841   1.553       .  S
C772        C910   1.522       .  S
C773        C774   1.417       .  A
C773        C778   1.398       .  A
C773       C1015   1.432   1_455  S
C774        C775   1.392       .  A
C774       C1013   1.439       .  S
C775        C776   1.393       .  A
C775        H780   1.088       .  S
C776        C777   1.413       .  A
C776       C1010   1.444       .  S
C777        C778   1.395       .  A
C777       C1012   1.426       .  S
C778        H779   1.086       .  S
C781        C782   1.425       .  A
C781        C786   1.391   1_556  A
C781       C1007   1.422       .  S
C782        C783   1.390       .  A
C782       C1003   1.449       .  S
C783        C784   1.390       .  A
C783        H788   1.088       .  S
C784        C785   1.419       .  A
C784       C1001   1.439       .  S
C785        C786   1.389   1_556  A
C785       C1005   1.430       .  S
C786        H787   1.087       .  S
C789        C790   1.408       .  A
C789        C794   1.398       .  A
C789        C999   1.420       .  S
C790        C791   1.386       .  A
C790        C997   1.452       .  S
C791        C792   1.402       .  A
C791        H796   1.088       .  S
C792        C793   1.418       .  A
C792        C994   1.432       .  S
C793        C794   1.395       .  A
C793        C995   1.439       .  S
C794        H795   1.087       .  S
Zn797      O1822   1.970       .  S
Zn797       O813   2.139       .  S
Zn798      O1819   2.115       .  S
Zn798       O805   1.996       .  S
Zn798       O809   1.979       .  S
Zn798       O801   1.945       .  S
Zn799       O804   2.043       .  S
Zn799       O810   2.013       .  S
Zn799      O1563   2.046   1_455  S
Zn800      O1824   2.032       .  S
Zn800       O812   2.117       .  S
O801      Zn1561   2.055       .  S
O802        C814   1.275       .  A
O803      Zn1814   2.111       .  S
O803        C815   1.277       .  A
O804        C816   1.284   1_455  A
O805        C814   1.273       .  A
O806      Zn1813   1.969       .  S
O806        C816   1.270       .  A
O807        C815   1.293       .  A
O808      Zn1816   2.035   1_455  S
O808        C817   1.264       .  A
O809        C818   1.278       .  A
O810        C817   1.261       .  A
O811        C818   1.286       .  A
O812        C819   1.280       .  A
O813        C819   1.284       .  A
C814        C991   1.425       .  S
C816       C1016   1.422       .  S
C817       C1008   1.412       .  S
C818        C996   1.426       .  S
C819        C967   1.544       .  S
Zn820       O825   1.972       .  S
Zn820       O829   2.057       .  S
Zn820      O1852   1.943       .  S
Zn820       O824   1.954       .  S
Zn821       O826   2.001       .  S
Zn821       O828   2.014       .  S
Zn821      O1848   2.109       .  S
Zn821       O824   1.934       .  S
Zn822       O827   2.152       .  S
Zn822       O830   1.999       .  S
Zn822      O1849   2.000       .  S
Zn822       O824   1.914       .  S
Zn823       O831   2.073       .  S
Zn823       O834   2.178       .  S
Zn823       O835   2.043       .  S
Zn823      O1840   1.964   1_455  S
O824      Zn1839   1.967       .  S
O825        C837   1.270       .  A
O826        C838   1.276       .  A
O827        C839   1.286       .  A
O828        C837   1.281       .  A
O829        C839   1.271       .  A
O830        C838   1.279       .  A
O831        C840   1.288       .  A
O832      Zn1837   2.114       .  S
O832        C841   1.277       .  A
O833      Zn1838   2.002       .  S
O833        C840   1.275   1_655  A
O834        C841   1.293       .  A
O835        C842   1.274       .  A
O836      Zn1836   1.943   1_455  S
O836        C842   1.260       .  A
C837        C989   1.415       .  S
C838        C993   1.425       .  S
C839        C964   1.527       .  S
C840       C1004   1.438       .  S
C842       C1014   1.427       .  S
C843        C844   1.411       .  A
C843        C848   1.396       .  A
C843        C992   1.444       .  S
C844        C845   1.395       .  A
C844        C990   1.426       .  S
C845        C846   1.396       .  A
C845        H850   1.087       .  S
C846        C847   1.410       .  A
C846        C985   1.444       .  S
C847        C848   1.395       .  A
C847        C988   1.427       .  S
C848        H849   1.088       .  S
C851        C852   1.416       .  A
C851        C856   1.400       .  A
C851        C984   1.433       .  S
C852        C853   1.395       .  A
C852        C982   1.437       .  S
C853        C854   1.398       .  A
C853        H858   1.087       .  S
C854        C855   1.411       .  A
C854        C980   1.423       .  S
C855        C856   1.388       .  A
C855        C978   1.449       .  S
C856        H857   1.088       .  S
C859        C860   1.410       .  A
C859        C864   1.400       .  A
C859        C975   1.424       .  S
C860        C861   1.390       .  A
C860        C971   1.453       .  S
C861        C862   1.395       .  A
C861        H866   1.088       .  S
C862        C863   1.414       .  A
C862        C970   1.414       .  S
C863        C864   1.396       .  A
C863        C973   1.450       .  S
C864        H865   1.088       .  S
Zn867       O872   2.195       .  S
Zn867       O876   2.065       .  S
Zn867       O883   2.106       .  S
Zn868       O873   1.991       .  S
Zn868       O879   2.008       .  S
Zn868       O871   1.944       .  S
Zn869       O877   2.056       .  S
Zn869       O880   2.118       .  S
Zn869       O871   2.003       .  S
Zn870       O878   2.153       .  S
Zn870       O881   1.986       .  S
Zn870       O871   1.955       .  S
O872        C884   1.294       .  A
O873        C885   1.280       .  A
O874        C886   1.271   1_545  A
O875        C884   1.275       .  A
O876        C886   1.287       .  A
O877        C885   1.285       .  A
O878        C887   1.285       .  A
O879        C888   1.274       .  A
O880        C887   1.280       .  A
O881        C888   1.275       .  A
O882        C889   1.255       .  A
O883        C889   1.281       .  A
C885        C981   1.424       .  S
C886       C1002   1.426       .  S
C887        C963   1.547       .  S
C888        C986   1.428       .  S
C889        C972   1.441       .  S
Zn890       O895   2.128       .  S
Zn890       O899   2.040       .  S
Zn890       O906   2.055       .  S
Zn890       O894   1.946       .  S
Zn891       O896   2.001       .  S
Zn891       O898   2.102       .  S
Zn891       O902   2.031       .  S
Zn891       O894   1.927       .  S
Zn892       O897   1.968       .  S
Zn892       O900   1.955       .  S
Zn892       O903   2.103       .  S
Zn892       O894   1.961       .  S
Zn893       O901   2.092       .  S
Zn893       O904   1.940       .  S
Zn893       O905   1.925       .  S
Zn893       O894   1.919       .  S
O895        C907   1.284       .  A
O896        C908   1.282       .  A
O897        C909   1.267       .  A
O898        C907   1.277       .  A
O899        C909   1.272       .  A
O900        C908   1.270       .  A
O901        C910   1.276       .  A
O902        C911   1.276       .  A
O903        C910   1.277       .  A
O904        C911   1.266       .  A
O905        C912   1.266       .  A
O906        C912   1.287       .  A
C907        C965   1.535       .  S
C908        C969   1.403       .  S
C909        C998   1.435       .  S
C911       C1009   1.423       .  S
C912        C979   1.410       .  S
Zn913       O922   2.006       .  S
Zn913       O929   2.016   1_554  S
Zn914       O919   2.029       .  S
Zn914       O925   2.006       .  S
Zn914       O917   1.945       .  S
Zn915       O926   2.062       .  S
Zn916       O924   2.142       .  S
O918        C930   1.286       .  A
O919        C931   1.283       .  A
O920        C932   1.275       .  A
O921        C930   1.277       .  A
O922        C932   1.278   1_564  A
O923        C931   1.270       .  A
O924        C933   1.284       .  A
O925        C934   1.277       .  A
O926        C933   1.271       .  A
O927        C934   1.278       .  A
O928        C935   1.265       .  A
O929        C935   1.263       .  A
C931        C987   1.417       .  S
C932        C976   1.411   1_545  S
C933        C966   1.525       .  S
C934        C983   1.423       .  S
C935       C1006   1.418       .  S
Zn936       O941   1.963       .  S
Zn936       O952   2.111       .  S
Zn937       O944   2.039       .  S
Zn937       O948   2.041       .  S
Zn938       O943   2.007       .  S
Zn938       O946   2.109       .  S
Zn938       O949   2.044       .  S
Zn938       O940   1.944   1_556  S
Zn939       O950   1.917       .  S
Zn939       O951   2.122       .  S
O941        C953   1.265       .  A
O942        C954   1.283       .  A
O943        C955   1.282       .  A
O944        C953   1.271       .  A
O945        C955   1.275   1_554  A
O946        C954   1.276       .  A
O947        C956   1.271       .  A
O948        C957   1.285       .  A
O949        C956   1.278       .  A
O950        C957   1.264       .  A
O951        C958   1.281       .  A
O952        C958   1.277       .  A
C953        C977   1.434       .  S
C954        C968   1.541       .  S
C955       C1011   1.416       .  S
C956        C974   1.434       .  S
C957       C1000   1.405       .  S
C959        H960   1.111       .  S
C959        C965   1.573       .  S
C959        C964   1.571       .  S
C959        C963   1.571       .  S
C961        H962   1.111       .  S
C961        C967   1.570       .  S
C961        C966   1.571       .  S
C961        C968   1.573       .  S
C963        C966   1.395       .  D
C964        C967   1.396       .  D
C965        C968   1.403       .  D
C969        C970   1.186       .  T
C971        C972   1.212       .  T
C973        C974   1.209       .  T
C975        C976   1.192       .  T
C977        C978   1.207       .  T
C979        C980   1.193       .  T
C981        C982   1.201       .  T
C983        C984   1.200       .  T
C985        C986   1.205       .  T
C987        C988   1.194       .  T
C989        C990   1.193       .  T
C991        C992   1.204       .  T
C993        C994   1.200       .  T
C995        C996   1.202       .  T
C997        C998   1.208       .  T
C999       C1000   1.191       .  T
C1001      C1002   1.202       .  T
C1003      C1004   1.208       .  T
C1005      C1006   1.194       .  T
C1007      C1008   1.190       .  T
C1009      C1010   1.203       .  T
C1011      C1012   1.194       .  T
C1013      C1014   1.203       .  T
C1015      C1016   1.199       .  T
C1017      H1018   1.110       .  S
C1017      C1023   1.576       .  S
C1017      C1022   1.574       .  S
C1017      C1021   1.567       .  S
C1019      H1020   1.111       .  S
C1019      C1025   1.585       .  S
C1019      C1024   1.592       .  S
C1019      C1026   1.554       .  S
C1021      C1024   1.414       .  D
C1021      C1184   1.557       .  S
C1022      C1025   1.413       .  D
C1022      C1069   1.561       .  S
C1023      C1026   1.392       .  D
C1023      C1212   1.519       .  S
C1024      C1138   1.555       .  S
C1025      C1095   1.554       .  S
C1026      C1164   1.539       .  S
C1027      C1028   1.410       .  A
C1027      C1032   1.391       .  A
C1027      C1269   1.449       .  S
C1028      C1029   1.400       .  A
C1028      C1267   1.426       .  S
C1029      C1030   1.396       .  A
C1029      H1034   1.088       .  S
C1030      C1031   1.412       .  A
C1030      C1264   1.450       .  S
C1031      C1032   1.396       .  A
C1031      C1266   1.416       .  S
C1032      H1033   1.088       .  S
C1035      C1036   1.419       .  A
C1035      C1040   1.391       .  A
C1035      C1261   1.440       .  S
C1036      C1037   1.390       .  A
C1036      C1257   1.431       .  S
C1037      C1038   1.392       .  A
C1037      H1042   1.086       .  S
C1038      C1039   1.424       .  A
C1038      C1255   1.423       .  S
C1039      C1040   1.390       .  A
C1039      C1259   1.450       .  S
C1040      H1041   1.087       .  S
C1043      C1044   1.409       .  A
C1043      C1048   1.393       .  A
C1043      C1253   1.416       .  S
C1044      C1045   1.388       .  A
C1044      C1251   1.448       .  S
C1045      C1046   1.400       .  A
C1045      H1050   1.086       .  S
C1046      C1047   1.418       .  A
C1046      C1248   1.416       .  S
C1047      C1048   1.391       .  A
C1047      C1249   1.454       .  S
C1048      H1049   1.087       .  S
Zn1051     O1310   1.957       .  S
Zn1051     O1067   2.040       .  S
Zn1051     O1309   1.950   1_655  S
Zn1052     O1059   2.011   1_455  S
Zn1052     O1063   2.031   1_455  S
Zn1052     O1055   1.942   1_554  S
Zn1053     O1058   2.094       .  S
Zn1053     O1315   2.201       .  S
Zn1053     O1064   2.068       .  S
Zn1054     O1319   2.055       .  S
Zn1054     O1066   2.176       .  S
Zn1054     O1309   1.940   1_655  S
O1055     Zn1305   1.953   1_455  S
O1055     Zn1308   1.938   1_455  S
O1056     Zn1305   1.959       .  S
O1056      C1068   1.270   1_556  A
O1057      C1069   1.275       .  A
O1058      C1070   1.280       .  A
O1059      C1068   1.280       .  A
O1060      C1070   1.256       .  A
O1061     Zn1307   2.200   1_554  S
O1061      C1069   1.294       .  A
O1062      C1071   1.272       .  A
O1063      C1072   1.279       .  A
O1064      C1071   1.287       .  A
O1065     Zn1308   2.054   1_554  S
O1065      C1072   1.283       .  A
O1066      C1073   1.289       .  A
O1067      C1073   1.267       .  A
C1068      C1245   1.408       .  S
C1070      C1270   1.438       .  S
C1071      C1262   1.428       .  S
C1072      C1250   1.447       .  S
C1073      C1221   1.528       .  S
Zn1074     O1079   1.973       .  S
Zn1074     O1083   2.167       .  S
Zn1074     O1078   1.988       .  S
Zn1075     O1080   1.972   1_455  S
Zn1075     O1082   2.023   1_455  S
Zn1075     O1078   1.991   1_455  S
Zn1076     O1081   2.131       .  S
Zn1076     O1084   2.016       .  S
Zn1076     O1078   2.020       .  S
Zn1077     O1085   2.010       .  S
Zn1077     O1088   2.172       .  S
Zn1077     O1089   2.012       .  S
O1079      C1091   1.269       .  A
O1080      C1092   1.278       .  A
O1081      C1093   1.280       .  A
O1082      C1091   1.271       .  A
O1083      C1093   1.285       .  A
O1084      C1092   1.280       .  A
O1085      C1094   1.263       .  A
O1086      C1095   1.278       .  A
O1087      C1094   1.265       .  A
O1088      C1095   1.287       .  A
O1089      C1096   1.279       .  A
O1090      C1096   1.276       .  A
C1091      C1243   1.440       .  S
C1092      C1247   1.407       .  S
C1093      C1218   1.553       .  S
C1094      C1258   1.420       .  S
C1096      C1268   1.414       .  S
C1097      C1098   1.413       .  A
C1097      C1102   1.396       .  A
C1097      C1246   1.419       .  S
C1098      C1099   1.395       .  A
C1098      C1244   1.450       .  S
C1099      C1100   1.398       .  A
C1099      H1104   1.081       .  S
C1100      C1101   1.408       .  A
C1100      C1239   1.417       .  S
C1101      C1102   1.390       .  A
C1101      C1242   1.451       .  S
C1102      H1103   1.084       .  S
C1105      C1106   1.416       .  A
C1105      C1110   1.398       .  A
C1105      C1238   1.416       .  S
C1106      C1107   1.393       .  A
C1106      C1236   1.451       .  S
C1107      C1108   1.395       .  A
C1107      H1112   1.086       .  S
C1108      C1109   1.410       .  A
C1108      C1234   1.420       .  S
C1109      C1110   1.389       .  A
C1109      C1232   1.447       .  S
C1110      H1111   1.086       .  S
C1113      C1114   1.417       .  A
C1113      C1118   1.391       .  A
C1113      C1229   1.441       .  S
C1114      C1115   1.399       .  A
C1114      C1225   1.431       .  S
C1115      C1116   1.397       .  A
C1115      H1120   1.087       .  S
C1116      C1117   1.413       .  A
C1116      C1224   1.426       .  S
C1117      C1118   1.392       .  A
C1117      C1227   1.444       .  S
C1118      H1119   1.088       .  S
Zn1121     O1126   2.188       .  S
Zn1121     O1130   2.011       .  S
Zn1121     O1137   2.035       .  S
Zn1121     O1633   2.048       .  S
Zn1122     O1127   2.045   1_565  S
Zn1122     O1637   2.109       .  S
Zn1122     O1133   2.037   1_565  S
Zn1122     O1125   1.942   1_565  S
Zn1123     O1636   1.978       .  S
Zn1123     O1131   2.021       .  S
Zn1123     O1134   2.169       .  S
Zn1123     O1125   1.927       .  S
Zn1124     O1132   2.041       .  S
Zn1124     O1135   1.935       .  S
Zn1124     O1644   1.942   1_545  S
Zn1124     O1125   1.955       .  S
O1125     Zn1629   1.972   1_545  S
O1126      C1138   1.291       .  A
O1127      C1139   1.282       .  A
O1128     Zn1631   2.032       .  S
O1128      C1140   1.263       .  A
O1129     Zn1630   2.120       .  S
O1129      C1138   1.278       .  A
O1130      C1140   1.261       .  A
O1131      C1139   1.280       .  A
O1132      C1141   1.267       .  A
O1133      C1142   1.285       .  A
O1134      C1141   1.288       .  A
O1135      C1142   1.266       .  A
O1136     Zn1632   1.975       .  S
O1136      C1143   1.271       .  A
O1137      C1143   1.282       .  A
C1139      C1235   1.442       .  S
C1140      C1256   1.413       .  S
C1141      C1217   1.528       .  S
C1142      C1240   1.407       .  S
C1143      C1226   1.421       .  S
Zn1144     O1149   2.131       .  S
Zn1144     O1153   2.049       .  S
Zn1144     O1160   2.023       .  S
Zn1144     O1148   2.008       .  S
Zn1145     O1150   2.012       .  S
Zn1145     O1152   2.109       .  S
Zn1145     O1156   2.041       .  S
Zn1145     O1148   1.946       .  S
Zn1146     O1151   1.947       .  S
Zn1146     O1154   1.994       .  S
Zn1146     O1157   2.106       .  S
Zn1146     O1148   1.973       .  S
Zn1147     O1155   2.149       .  S
Zn1147     O1158   1.981       .  S
Zn1147     O1159   1.944       .  S
Zn1147     O1148   1.946       .  S
O1149      C1161   1.280       .  A
O1150      C1162   1.282       .  A
O1151      C1163   1.259       .  A
O1152      C1161   1.275       .  A
O1153      C1163   1.271       .  A
O1154      C1162   1.275       .  A
O1155      C1164   1.284       .  A
O1156      C1165   1.279       .  A
O1157      C1164   1.277       .  A
O1158      C1165   1.273       .  A
O1159      C1166   1.268       .  A
O1160      C1166   1.281       .  A
C1161      C1219   1.543       .  S
C1162      C1223   1.418       .  S
C1163      C1252   1.433       .  S
C1165      C1263   1.435       .  S
C1166      C1233   1.407       .  S
Zn1167     O1426   2.191       .  S
Zn1167     O1176   2.056       .  S
Zn1167     O1183   2.080       .  S
Zn1167     O1933   1.965       .  S
Zn1168     O1173   2.021   1_565  S
Zn1168     O1683   2.117       .  S
Zn1168     O1179   1.987   1_565  S
Zn1168     O1171   1.935   1_564  S
Zn1169     O1682   1.989       .  S
Zn1169     O1431   1.983       .  S
Zn1169     O1180   2.160       .  S
Zn1169     O1425   1.967       .  S
Zn1170     O1178   2.114       .  S
Zn1170     O1435   2.007       .  S
Zn1170     O1690   2.033   1_545  S
Zn1170     O1425   1.997       .  S
O1171     Zn1929   2.026   1_546  S
O1171     Zn1423   1.962       .  S
O1171     Zn1424   1.995       .  S
O1172     Zn1421   2.184   1_554  S
O1172      C1184   1.293       .  A
O1173      C1185   1.274       .  A
O1174     Zn1677   1.947       .  S
O1174      C1186   1.260       .  A
O1175     Zn1676   2.120       .  S
O1175      C1184   1.277       .  A
O1176      C1186   1.276       .  A
O1177     Zn1423   1.985   1_554  S
O1177      C1185   1.273       .  A
O1178      C1187   1.278       .  A
O1179      C1188   1.282       .  A
O1180      C1187   1.285       .  A
O1181     Zn1424   2.003       .  S
O1181      C1188   1.280   1_556  A
O1182     Zn1678   1.997       .  S
O1182      C1189   1.274       .  A
O1183      C1189   1.289       .  A
C1185      C1241   1.435       .  S
C1186      C1230   1.429       .  S
C1187      C1220   1.547       .  S
C1188      C1237   1.406       .  S
C1189      C1260   1.439       .  S
Zn1190     O1195   1.946       .  S
Zn1190     O1453   1.959       .  S
Zn1190     O1206   2.071       .  S
Zn1190     O1448   1.964       .  S
Zn1191     O1450   2.119   1_554  S
Zn1191     O1198   2.052       .  S
Zn1191     O1202   2.019       .  S
Zn1191     O1448   1.981       .  S
Zn1192     O1197   2.014       .  S
Zn1192     O1200   2.115       .  S
Zn1192     O1203   2.036       .  S
Zn1192     O1194   1.924       .  S
Zn1193     O1455   1.944   1_554  S
Zn1193     O1204   1.932       .  S
Zn1193     O1205   2.118       .  S
Zn1193     O1448   1.921       .  S
O1194     Zn1444   1.960       .  S
O1194     Zn1445   1.973       .  S
O1194     Zn1447   1.918       .  S
O1195      C1207   1.259       .  A
O1196     Zn1445   2.121       .  S
O1196      C1208   1.282       .  A
O1197      C1209   1.284       .  A
O1198      C1207   1.272       .  A
O1199     Zn1444   1.963       .  S
O1199      C1209   1.272       .  A
O1200      C1208   1.278       .  A
O1201     Zn1447   1.937       .  S
O1201      C1210   1.266       .  A
O1202      C1211   1.282       .  A
O1203      C1210   1.277       .  A
O1204      C1211   1.268       .  A
O1205      C1212   1.279       .  A
O1206      C1212   1.271       .  A
C1207      C1231   1.434       .  S
C1208      C1222   1.540       .  S
C1209      C1265   1.405       .  S
C1210      C1228   1.423       .  S
C1211      C1254   1.402       .  S
C1213      H1214   1.111       .  S
C1213      C1219   1.578       .  S
C1213      C1218   1.588       .  S
C1213      C1217   1.561       .  S
C1215      H1216   1.111       .  S
C1215      C1221   1.560       .  S
C1215      C1220   1.581       .  S
C1215      C1222   1.573       .  S
C1217      C1220   1.396       .  D
C1218      C1221   1.398       .  D
C1219      C1222   1.404       .  D
C1223      C1224   1.195       .  T
C1225      C1226   1.198       .  T
C1227      C1228   1.203       .  T
C1229      C1230   1.204       .  T
C1231      C1232   1.207       .  T
C1233      C1234   1.190       .  T
C1235      C1236   1.211       .  T
C1237      C1238   1.188       .  T
C1239      C1240   1.189       .  T
C1241      C1242   1.208       .  T
C1243      C1244   1.209       .  T
C1245      C1246   1.190       .  T
C1247      C1248   1.188       .  T
C1249      C1250   1.213       .  T
C1251      C1252   1.207       .  T
C1253      C1254   1.188       .  T
C1255      C1256   1.190       .  T
C1257      C1258   1.195       .  T
C1259      C1260   1.209       .  T
C1261      C1262   1.203       .  T
C1263      C1264   1.209       .  T
C1265      C1266   1.187       .  T
C1267      C1268   1.194       .  T
C1269      C1270   1.210       .  T
C1271      H1272   1.110       .  S
C1271      C1277   1.576       .  S
C1271      C1276   1.573       .  S
C1271      C1275   1.566       .  S
C1273      H1274   1.111       .  S
C1273      C1279   1.586       .  S
C1273      C1278   1.594       .  S
C1273      C1280   1.551       .  S
C1275      C1278   1.414       .  D
C1275      C1438   1.561       .  S
C1276      C1279   1.413       .  D
C1276      C1323   1.561       .  S
C1277      C1280   1.394       .  D
C1277      C1466   1.516       .  S
C1278      C1392   1.556       .  S
C1279      C1349   1.555       .  S
C1280      C1418   1.541       .  S
C1281      C1282   1.410       .  A
C1281      C1286   1.391       .  A
C1281      C1523   1.450       .  S
C1282      C1283   1.400       .  A
C1282      C1521   1.425       .  S
C1283      C1284   1.395       .  A
C1283      H1288   1.085       .  S
C1284      C1285   1.412       .  A
C1284      C1518   1.451       .  S
C1285      C1286   1.396       .  A
C1285      C1520   1.414       .  S
C1286      H1287   1.086       .  S
C1289      C1290   1.420       .  A
C1289      C1294   1.391       .  A
C1289      C1515   1.439       .  S
C1290      C1291   1.390       .  A
C1290      C1511   1.431       .  S
C1291      C1292   1.392       .  A
C1291      H1296   1.088       .  S
C1292      C1293   1.422       .  A
C1292      C1509   1.423       .  S
C1293      C1294   1.390       .  A
C1293      C1513   1.450       .  S
C1294      H1295   1.088       .  S
C1297      C1298   1.408       .  A
C1297      C1302   1.394       .  A
C1297      C1507   1.413       .  S
C1298      C1299   1.387       .  A
C1298      C1505   1.448       .  S
C1299      C1300   1.401       .  A
C1299      H1304   1.088       .  S
C1300      C1301   1.417       .  A
C1300      C1502   1.414       .  S
C1301      C1302   1.390       .  A
C1301      C1503   1.455       .  S
C1302      H1303   1.087       .  S
Zn1305     O1321   2.040       .  S
Zn1306     O1313   2.014   1_455  S
Zn1306     O1317   2.035   1_455  S
Zn1306     O1309   1.942       .  S
Zn1307     O1312   2.094       .  S
Zn1307     O1318   2.065       .  S
Zn1308     O1320   2.180       .  S
O1310      C1322   1.270       .  A
O1311      C1323   1.275       .  A
O1312      C1324   1.279       .  A
O1313      C1322   1.281       .  A
O1314      C1324   1.256       .  A
O1315      C1323   1.294       .  A
O1316      C1325   1.273       .  A
O1317      C1326   1.280       .  A
O1318      C1325   1.287       .  A
O1319      C1326   1.283       .  A
O1320      C1327   1.290       .  A
O1321      C1327   1.267       .  A
C1322      C1499   1.409       .  S
C1324      C1524   1.440       .  S
C1325      C1516   1.427       .  S
C1326      C1504   1.448       .  S
C1327      C1475   1.530       .  S
Zn1328     O1333   1.976       .  S
Zn1328     O1337   2.170       .  S
Zn1328     O1332   1.988       .  S
Zn1329     O1334   1.963   1_455  S
Zn1329     O1336   2.020   1_455  S
Zn1329     O1332   1.989   1_455  S
Zn1330     O1335   2.128       .  S
Zn1330     O1338   2.017       .  S
Zn1330     O1332   2.017       .  S
Zn1331     O1339   2.009       .  S
Zn1331     O1342   2.180       .  S
Zn1331     O1343   2.019       .  S
O1333      C1345   1.270       .  A
O1334      C1346   1.277       .  A
O1335      C1347   1.279       .  A
O1336      C1345   1.271       .  A
O1337      C1347   1.286       .  A
O1338      C1346   1.280       .  A
O1339      C1348   1.263       .  A
O1340      C1349   1.278       .  A
O1341      C1348   1.265       .  A
O1342      C1349   1.289       .  A
O1343      C1350   1.281       .  A
O1344      C1350   1.276       .  A
C1345      C1497   1.439       .  S
C1346      C1501   1.406       .  S
C1347      C1472   1.552       .  S
C1348      C1512   1.420       .  S
C1350      C1522   1.413       .  S
C1351      C1352   1.413       .  A
C1351      C1356   1.397       .  A
C1351      C1500   1.420       .  S
C1352      C1353   1.394       .  A
C1352      C1498   1.449       .  S
C1353      C1354   1.398       .  A
C1353      H1358   1.084       .  S
C1354      C1355   1.410       .  A
C1354      C1493   1.418       .  S
C1355      C1356   1.391       .  A
C1355      C1496   1.450       .  S
C1356      H1357   1.086       .  S
C1359      C1360   1.416       .  A
C1359      C1364   1.398       .  A
C1359      C1492   1.415       .  S
C1360      C1361   1.393       .  A
C1360      C1490   1.453       .  S
C1361      C1362   1.396       .  A
C1361      H1366   1.086       .  S
C1362      C1363   1.409       .  A
C1362      C1488   1.418       .  S
C1363      C1364   1.388       .  A
C1363      C1486   1.447       .  S
C1364      H1365   1.086       .  S
C1367      C1368   1.417       .  A
C1367      C1372   1.391       .  A
C1367      C1483   1.441       .  S
C1368      C1369   1.399       .  A
C1368      C1479   1.431       .  S
C1369      C1370   1.396       .  A
C1369      H1374   1.086       .  S
C1370      C1371   1.413       .  A
C1370      C1478   1.427       .  S
C1371      C1372   1.392       .  A
C1371      C1481   1.444       .  S
C1372      H1373   1.088       .  S
Zn1375     O1380   2.197       .  S
Zn1375     O1384   2.014       .  S
Zn1375     O1391   2.041       .  S
Zn1375     O1887   2.047       .  S
Zn1376     O1381   2.045   1_565  S
Zn1376     O1891   2.105       .  S
Zn1376     O1387   2.033   1_565  S
Zn1376     O1379   1.943   1_565  S
Zn1377     O1890   1.975       .  S
Zn1377     O1385   2.030       .  S
Zn1377     O1388   2.167       .  S
Zn1377     O1379   1.930       .  S
Zn1378     O1386   2.038       .  S
Zn1378     O1389   1.945       .  S
Zn1378     O1898   1.942   1_545  S
Zn1378     O1379   1.956       .  S
O1379     Zn1883   1.974   1_545  S
O1380      C1392   1.292       .  A
O1381      C1393   1.282       .  A
O1382     Zn1885   2.031       .  S
O1382      C1394   1.264       .  A
O1383     Zn1884   2.115       .  S
O1383      C1392   1.277       .  A
O1384      C1394   1.261       .  A
O1385      C1393   1.281       .  A
O1386      C1395   1.266       .  A
O1387      C1396   1.284       .  A
O1388      C1395   1.288       .  A
O1389      C1396   1.268       .  A
O1390     Zn1886   1.974       .  S
O1390      C1397   1.272       .  A
O1391      C1397   1.284       .  A
C1393      C1489   1.445       .  S
C1394      C1510   1.414       .  S
C1395      C1471   1.526       .  S
C1396      C1494   1.409       .  S
C1397      C1480   1.421       .  S
Zn1398     O1403   2.130       .  S
Zn1398     O1407   2.044       .  S
Zn1398     O1414   2.022       .  S
Zn1398     O1402   2.009       .  S
Zn1399     O1404   2.007       .  S
Zn1399     O1406   2.114       .  S
Zn1399     O1410   2.041       .  S
Zn1399     O1402   1.944       .  S
Zn1400     O1405   1.949       .  S
Zn1400     O1408   2.000       .  S
Zn1400     O1411   2.111       .  S
Zn1400     O1402   1.974       .  S
Zn1401     O1409   2.151       .  S
Zn1401     O1412   1.986       .  S
Zn1401     O1413   1.945       .  S
Zn1401     O1402   1.947       .  S
O1403      C1415   1.281       .  A
O1404      C1416   1.282       .  A
O1405      C1417   1.259       .  A
O1406      C1415   1.276       .  A
O1407      C1417   1.269       .  A
O1408      C1416   1.276       .  A
O1409      C1418   1.284       .  A
O1410      C1419   1.279       .  A
O1411      C1418   1.277       .  A
O1412      C1419   1.273       .  A
O1413      C1420   1.268       .  A
O1414      C1420   1.282       .  A
C1415      C1473   1.542       .  S
C1416      C1477   1.418       .  S
C1417      C1506   1.432       .  S
C1419      C1517   1.436       .  S
C1420      C1487   1.406       .  S
Zn1421     O1430   2.056       .  S
Zn1421     O1437   2.076       .  S
Zn1421     O1679   1.966       .  S
Zn1422     O1427   2.014   1_565  S
Zn1422     O1937   2.120       .  S
Zn1422     O1433   1.979   1_565  S
Zn1422     O1425   1.939   1_565  S
Zn1423     O1936   1.982       .  S
Zn1423     O1434   2.167       .  S
Zn1424     O1432   2.108       .  S
Zn1424     O1944   2.032   1_545  S
O1425     Zn1675   2.030   1_545  S
O1426      C1438   1.294       .  A
O1427      C1439   1.273       .  A
O1428     Zn1931   1.947       .  S
O1428      C1440   1.260       .  A
O1429     Zn1930   2.129       .  S
O1429      C1438   1.279       .  A
O1430      C1440   1.276       .  A
O1431      C1439   1.272       .  A
O1432      C1441   1.277       .  A
O1433      C1442   1.281       .  A
O1434      C1441   1.286       .  A
O1435      C1442   1.280       .  A
O1436     Zn1932   1.998       .  S
O1436      C1443   1.274       .  A
O1437      C1443   1.288       .  A
C1439      C1495   1.434       .  S
C1440      C1484   1.429       .  S
C1441      C1474   1.547       .  S
C1442      C1491   1.405       .  S
C1443      C1514   1.439       .  S
Zn1444     O1449   1.945       .  S
Zn1444     O1460   2.068       .  S
Zn1445     O1452   2.055       .  S
Zn1445     O1456   2.021       .  S
Zn1446     O1451   2.009       .  S
Zn1446     O1454   2.113       .  S
Zn1446     O1457   2.029       .  S
Zn1446     O1448   1.933   1_556  S
Zn1447     O1458   1.921       .  S
Zn1447     O1459   2.107       .  S
O1449      C1461   1.257       .  A
O1450      C1462   1.281       .  A
O1451      C1463   1.283       .  A
O1452      C1461   1.271       .  A
O1453      C1463   1.271   1_554  A
O1454      C1462   1.277       .  A
O1455      C1464   1.267       .  A
O1456      C1465   1.283       .  A
O1457      C1464   1.276       .  A
O1458      C1465   1.267       .  A
O1459      C1466   1.277       .  A
O1460      C1466   1.270       .  A
C1461      C1485   1.433       .  S
C1462      C1476   1.540       .  S
C1463      C1519   1.404       .  S
C1464      C1482   1.424       .  S
C1465      C1508   1.398       .  S
C1467      H1468   1.111       .  S
C1467      C1473   1.576       .  S
C1467      C1472   1.587       .  S
C1467      C1471   1.556       .  S
C1469      H1470   1.111       .  S
C1469      C1475   1.560       .  S
C1469      C1474   1.583       .  S
C1469      C1476   1.575       .  S
C1471      C1474   1.396       .  D
C1472      C1475   1.399       .  D
C1473      C1476   1.404       .  D
C1477      C1478   1.195       .  T
C1479      C1480   1.198       .  T
C1481      C1482   1.203       .  T
C1483      C1484   1.204       .  T
C1485      C1486   1.207       .  T
C1487      C1488   1.189       .  T
C1489      C1490   1.212       .  T
C1491      C1492   1.188       .  T
C1493      C1494   1.190       .  T
C1495      C1496   1.208       .  T
C1497      C1498   1.208       .  T
C1499      C1500   1.190       .  T
C1501      C1502   1.188       .  T
C1503      C1504   1.214       .  T
C1505      C1506   1.206       .  T
C1507      C1508   1.186       .  T
C1509      C1510   1.191       .  T
C1511      C1512   1.195       .  T
C1513      C1514   1.208       .  T
C1515      C1516   1.202       .  T
C1517      C1518   1.210       .  T
C1519      C1520   1.186       .  T
C1521      C1522   1.193       .  T
C1523      C1524   1.211       .  T
C1525      H1526   1.111       .  S
C1525      C1531   1.553       .  S
C1525      C1530   1.589       .  S
C1525      C1529   1.587       .  S
C1527      H1528   1.110       .  S
C1527      C1533   1.566       .  S
C1527      C1532   1.568       .  S
C1527      C1534   1.574       .  S
C1529      C1532   1.413       .  D
C1529      C1692   1.551       .  S
C1530      C1533   1.414       .  D
C1530      C1577   1.553       .  S
C1531      C1534   1.391       .  D
C1531      C1720   1.538       .  S
C1532      C1646   1.560       .  S
C1533      C1603   1.558       .  S
C1534      C1672   1.514       .  S
C1535      C1536   1.419       .  A
C1535      C1540   1.398       .  A
C1535      C1777   1.435       .  S
C1536      C1537   1.394       .  A
C1536      C1775   1.438       .  S
C1537      C1538   1.393       .  A
C1537      H1542   1.087       .  S
C1538      C1539   1.413       .  A
C1538      C1772   1.446       .  S
C1539      C1540   1.396       .  A
C1539      C1774   1.425       .  S
C1540      H1541   1.086       .  S
C1543      C1544   1.424       .  A
C1543      C1548   1.392       .  A
C1543      C1769   1.421       .  S
C1544      C1545   1.389       .  A
C1544      C1765   1.450       .  S
C1545      C1546   1.390       .  A
C1545      H1550   1.087       .  S
C1546      C1547   1.420       .  A
C1546      C1763   1.440       .  S
C1547      C1548   1.389       .  A
C1547      C1767   1.430       .  S
C1548      H1549   1.087       .  S
C1551      C1552   1.410       .  A
C1551      C1556   1.399       .  A
C1551      C1761   1.418       .  S
C1552      C1553   1.387       .  A
C1552      C1759   1.454       .  S
C1553      C1554   1.402       .  A
C1553      H1558   1.088       .  S
C1554      C1555   1.417       .  A
C1554      C1756   1.431       .  S
C1555      C1556   1.394       .  A
C1555      C1757   1.440       .  S
C1556      H1557   1.089       .  S
Zn1559     O1818   1.988       .  S
Zn1559     O1575   2.138       .  S
Zn1559     O1817   1.952       .  S
Zn1560     O1567   2.011       .  S
Zn1560     O1571   1.994       .  S
Zn1560     O1563   1.942   1_554  S
Zn1561     O1566   2.046       .  S
Zn1561     O1823   2.202       .  S
Zn1561     O1572   2.014       .  S
Zn1562     O1827   2.065       .  S
Zn1562     O1574   2.120       .  S
Zn1562     O1817   2.002       .  S
O1563     Zn1813   1.944       .  S
O1563     Zn1816   2.002       .  S
O1564     Zn1813   1.986   1_554  S
O1564      C1576   1.275       .  A
O1565      C1577   1.277       .  A
O1566      C1578   1.284       .  A
O1567      C1576   1.275       .  A
O1568      C1578   1.270       .  A
O1569     Zn1815   2.194   1_554  S
O1569      C1577   1.292       .  A
O1570      C1579   1.264       .  A
O1571      C1580   1.280       .  A
O1572      C1579   1.260       .  A
O1573     Zn1816   2.064       .  S
O1573      C1580   1.285   1_556  A
O1574      C1581   1.280       .  A
O1575      C1581   1.284       .  A
C1576      C1753   1.429       .  S
C1578      C1778   1.424       .  S
C1579      C1770   1.412       .  S
C1580      C1758   1.428       .  S
C1581      C1729   1.544       .  S
Zn1582     O1587   1.973       .  S
Zn1582     O1591   2.058       .  S
Zn1582     O1586   1.954       .  S
Zn1583     O1588   1.996       .  S
Zn1583     O1590   2.016       .  S
Zn1583     O1586   1.939       .  S
Zn1584     O1589   2.160       .  S
Zn1584     O1592   1.998       .  S
Zn1584     O1586   1.917       .  S
Zn1585     O1593   2.078       .  S
Zn1585     O1596   2.188       .  S
Zn1585     O1597   2.052       .  S
O1587      C1599   1.270       .  A
O1588      C1600   1.276       .  A
O1589      C1601   1.287       .  A
O1590      C1599   1.281       .  A
O1591      C1601   1.270       .  A
O1592      C1600   1.280       .  A
O1593      C1602   1.288       .  A
O1594      C1603   1.277       .  A
O1595      C1602   1.275       .  A
O1596      C1603   1.294       .  A
O1597      C1604   1.275       .  A
O1598      C1604   1.258       .  A
C1599      C1751   1.414       .  S
C1600      C1755   1.421       .  S
C1601      C1726   1.530       .  S
C1602      C1766   1.439       .  S
C1604      C1776   1.427       .  S
C1605      C1606   1.411       .  A
C1605      C1610   1.396       .  A
C1605      C1754   1.446       .  S
C1606      C1607   1.396       .  A
C1606      C1752   1.425       .  S
C1607      C1608   1.395       .  A
C1607      H1612   1.087       .  S
C1608      C1609   1.411       .  A
C1608      C1747   1.446       .  S
C1609      C1610   1.396       .  A
C1609      C1750   1.425       .  S
C1610      H1611   1.088       .  S
C1613      C1614   1.416       .  A
C1613      C1618   1.400       .  A
C1613      C1746   1.433       .  S
C1614      C1615   1.395       .  A
C1614      C1744   1.439       .  S
C1615      C1616   1.399       .  A
C1615      H1620   1.087       .  S
C1616      C1617   1.412       .  A
C1616      C1742   1.423       .  S
C1617      C1618   1.389       .  A
C1617      C1740   1.450       .  S
C1618      H1619   1.088       .  S
C1621      C1622   1.410       .  A
C1621      C1626   1.400       .  A
C1621      C1737   1.425       .  S
C1622      C1623   1.390       .  A
C1622      C1733   1.452       .  S
C1623      C1624   1.396       .  A
C1623      H1628   1.087       .  S
C1624      C1625   1.412       .  A
C1624      C1732   1.415       .  S
C1625      C1626   1.396       .  A
C1625      C1735   1.449       .  S
C1626      H1627   1.088       .  S
Zn1629     O1634   2.196       .  S
Zn1629     O1638   2.064       .  S
Zn1629     O1645   2.098       .  S
Zn1630     O1635   1.995       .  S
Zn1630     O1641   2.007       .  S
Zn1630     O1633   1.945       .  S
Zn1631     O1639   2.063       .  S
Zn1631     O1642   2.107       .  S
Zn1631     O1633   2.005       .  S
Zn1632     O1640   2.142       .  S
Zn1632     O1643   1.988       .  S
Zn1632     O1633   1.954       .  S
O1634      C1646   1.294       .  A
O1635      C1647   1.280       .  A
O1636      C1648   1.273   1_545  A
O1637      C1646   1.276       .  A
O1638      C1648   1.287       .  A
O1639      C1647   1.286       .  A
O1640      C1649   1.284       .  A
O1641      C1650   1.274       .  A
O1642      C1649   1.278       .  A
O1643      C1650   1.275       .  A
O1644      C1651   1.257       .  A
O1645      C1651   1.280       .  A
C1647      C1743   1.427       .  S
C1648      C1764   1.427       .  S
C1649      C1725   1.540       .  S
C1650      C1748   1.428       .  S
C1651      C1734   1.441       .  S
Zn1652     O1657   2.121       .  S
Zn1652     O1661   2.045       .  S
Zn1652     O1668   2.059       .  S
Zn1652     O1656   1.951       .  S
Zn1653     O1658   2.009       .  S
Zn1653     O1660   2.093       .  S
Zn1653     O1664   2.047       .  S
Zn1653     O1656   1.928       .  S
Zn1654     O1659   1.963       .  S
Zn1654     O1662   1.955       .  S
Zn1654     O1665   2.095       .  S
Zn1654     O1656   1.957       .  S
Zn1655     O1663   2.074       .  S
Zn1655     O1666   1.929       .  S
Zn1655     O1667   1.915       .  S
Zn1655     O1656   1.914       .  S
O1657      C1669   1.284       .  A
O1658      C1670   1.283       .  A
O1659      C1671   1.265       .  A
O1660      C1669   1.276       .  A
O1661      C1671   1.272       .  A
O1662      C1670   1.270       .  A
O1663      C1672   1.274       .  A
O1664      C1673   1.278       .  A
O1665      C1672   1.275       .  A
O1666      C1673   1.264       .  A
O1667      C1674   1.264       .  A
O1668      C1674   1.287       .  A
C1669      C1727   1.532       .  S
C1670      C1731   1.405       .  S
C1671      C1760   1.437       .  S
C1673      C1771   1.424       .  S
C1674      C1741   1.409       .  S
Zn1675     O1934   2.172       .  S
Zn1675     O1684   2.009       .  S
Zn1675     O1691   2.011       .  S
Zn1676     O1681   2.023       .  S
Zn1676     O1687   2.008       .  S
Zn1676     O1679   1.945   1_554  S
Zn1677     O1939   1.967       .  S
Zn1677     O1688   2.067       .  S
Zn1677     O1933   1.960       .  S
Zn1678     O1686   2.156       .  S
Zn1678     O1943   1.992       .  S
Zn1678     O1933   1.921       .  S
O1679     Zn1931   1.958       .  S
O1679     Zn1932   1.921       .  S
O1680     Zn1929   2.171       .  S
O1680      C1692   1.287       .  A
O1681      C1693   1.282       .  A
O1682      C1694   1.276       .  A
O1683      C1692   1.277       .  A
O1684      C1694   1.279   1_565  A
O1685     Zn1931   1.969       .  S
O1685      C1693   1.270   1_556  A
O1686      C1695   1.286       .  A
O1687      C1696   1.277       .  A
O1688      C1695   1.271       .  A
O1689     Zn1932   1.989   1_554  S
O1689      C1696   1.277       .  A
O1690      C1697   1.264       .  A
O1691      C1697   1.263       .  A
C1693      C1749   1.415       .  S
C1694      C1738   1.413   1_545  S
C1695      C1728   1.531       .  S
C1696      C1745   1.422       .  S
C1697      C1768   1.418       .  S
Zn1698     O1703   1.966       .  S
Zn1698     O1961   1.986       .  S
Zn1698     O1714   2.128       .  S
Zn1698     O1956   1.976       .  S
Zn1699     O1958   2.129   1_554  S
Zn1699     O1706   2.034       .  S
Zn1699     O1710   2.042       .  S
Zn1699     O1956   1.974       .  S
Zn1700     O1705   2.013       .  S
Zn1700     O1708   2.103       .  S
Zn1700     O1711   2.046       .  S
Zn1700     O1702   1.945       .  S
Zn1701     O1963   1.974   1_554  S
Zn1701     O1712   1.910       .  S
Zn1701     O1713   2.123       .  S
Zn1701     O1956   1.929       .  S
O1702     Zn1952   1.968       .  S
O1702     Zn1953   1.967       .  S
O1702     Zn1955   1.932       .  S
O1703      C1715   1.266       .  A
O1704     Zn1953   2.132       .  S
O1704      C1716   1.282       .  A
O1705      C1717   1.282       .  A
O1706      C1715   1.270       .  A
O1707     Zn1952   1.979       .  S
O1707      C1717   1.274       .  A
O1708      C1716   1.275       .  A
O1709     Zn1955   1.963       .  S
O1709      C1718   1.270       .  A
O1710      C1719   1.285       .  A
O1711      C1718   1.279       .  A
O1712      C1719   1.263       .  A
O1713      C1720   1.281       .  A
O1714      C1720   1.280       .  A
C1715      C1739   1.434       .  S
C1716      C1730   1.541       .  S
C1717      C1773   1.416       .  S
C1718      C1736   1.432       .  S
C1719      C1762   1.403       .  S
C1721      H1722   1.111       .  S
C1721      C1727   1.569       .  S
C1721      C1726   1.567       .  S
C1721      C1725   1.567       .  S
C1723      H1724   1.110       .  S
C1723      C1729   1.574       .  S
C1723      C1728   1.572       .  S
C1723      C1730   1.573       .  S
C1725      C1728   1.396       .  D
C1726      C1729   1.397       .  D
C1727      C1730   1.403       .  D
C1731      C1732   1.188       .  T
C1733      C1734   1.212       .  T
C1735      C1736   1.207       .  T
C1737      C1738   1.193       .  T
C1739      C1740   1.207       .  T
C1741      C1742   1.193       .  T
C1743      C1744   1.202       .  T
C1745      C1746   1.200       .  T
C1747      C1748   1.206       .  T
C1749      C1750   1.193       .  T
C1751      C1752   1.193       .  T
C1753      C1754   1.206       .  T
C1755      C1756   1.198       .  T
C1757      C1758   1.202       .  T
C1759      C1760   1.209       .  T
C1761      C1762   1.190       .  T
C1763      C1764   1.202       .  T
C1765      C1766   1.209       .  T
C1767      C1768   1.194       .  T
C1769      C1770   1.189       .  T
C1771      C1772   1.204       .  T
C1773      C1774   1.195       .  T
C1775      C1776   1.203       .  T
C1777      C1778   1.200       .  T
C1779      H1780   1.111       .  S
C1779      C1785   1.550       .  S
C1779      C1784   1.587       .  S
C1779      C1783   1.587       .  S
C1781      H1782   1.110       .  S
C1781      C1787   1.567       .  S
C1781      C1786   1.569       .  S
C1781      C1788   1.577       .  S
C1783      C1786   1.412       .  D
C1783      C1946   1.552       .  S
C1784      C1787   1.413       .  D
C1784      C1831   1.557       .  S
C1785      C1788   1.390       .  D
C1785      C1974   1.528       .  S
C1786      C1900   1.558       .  S
C1787      C1857   1.552       .  S
C1788      C1926   1.524       .  S
C1789      C1790   1.418       .  A
C1789      C1794   1.398       .  A
C1789      C2031   1.432       .  S
C1790      C1791   1.392       .  A
C1790      C2029   1.439       .  S
C1791      C1792   1.393       .  A
C1791      H1796   1.089       .  S
C1792      C1793   1.413       .  A
C1792      C2026   1.443       .  S
C1793      C1794   1.395       .  A
C1793      C2028   1.426       .  S
C1794      H1795   1.087       .  S
C1797      C1798   1.425       .  A
C1797      C1802   1.391   1_556  A
C1797      C2023   1.422       .  S
C1798      C1799   1.390       .  A
C1798      C2019   1.450       .  S
C1799      C1800   1.391       .  A
C1799      H1804   1.088       .  S
C1800      C1801   1.420       .  A
C1800      C2017   1.440       .  S
C1801      C1802   1.389   1_556  A
C1801      C2021   1.431       .  S
C1802      H1803   1.087       .  S
C1805      C1806   1.408       .  A
C1805      C1810   1.398       .  A
C1805      C2015   1.419       .  S
C1806      C1807   1.386       .  A
C1806      C2013   1.453       .  S
C1807      C1808   1.402       .  A
C1807      H1812   1.088       .  S
C1808      C1809   1.418       .  A
C1808      C2010   1.432       .  S
C1809      C1810   1.395       .  A
C1809      C2011   1.438       .  S
C1810      H1811   1.088       .  S
Zn1813     O1829   2.136       .  S
Zn1814     O1821   2.000   1_455  S
Zn1814     O1825   1.983   1_455  S
Zn1814     O1817   1.938   1_455  S
Zn1815     O1820   2.042       .  S
Zn1815     O1826   2.013       .  S
Zn1816     O1828   2.109       .  S
O1818      C1830   1.275       .  A
O1819      C1831   1.277       .  A
O1820      C1832   1.284       .  A
O1821      C1830   1.273       .  A
O1822      C1832   1.270       .  A
O1823      C1831   1.293       .  A
O1824      C1833   1.264       .  A
O1825      C1834   1.279       .  A
O1826      C1833   1.261       .  A
O1827      C1834   1.286       .  A
O1828      C1835   1.279       .  A
O1829      C1835   1.284       .  A
C1830      C2007   1.427       .  S
C1832      C2032   1.423       .  S
C1833      C2024   1.412       .  S
C1834      C2012   1.425       .  S
C1835      C1983   1.540       .  S
Zn1836     O1841   1.971       .  S
Zn1836     O1845   2.061       .  S
Zn1836     O1840   1.957       .  S
Zn1837     O1842   1.995   1_455  S
Zn1837     O1844   2.009   1_455  S
Zn1837     O1840   1.935   1_455  S
Zn1838     O1843   2.160       .  S
Zn1838     O1846   2.002       .  S
Zn1838     O1840   1.914       .  S
Zn1839     O1847   2.078       .  S
Zn1839     O1850   2.178       .  S
Zn1839     O1851   2.044       .  S
O1841      C1853   1.269       .  A
O1842      C1854   1.275       .  A
O1843      C1855   1.287       .  A
O1844      C1853   1.280       .  A
O1845      C1855   1.271       .  A
O1846      C1854   1.279       .  A
O1847      C1856   1.288       .  A
O1848      C1857   1.276       .  A
O1849      C1856   1.275       .  A
O1850      C1857   1.293       .  A
O1851      C1858   1.274       .  A
O1852      C1858   1.260       .  A
C1853      C2005   1.413       .  S
C1854      C2009   1.424       .  S
C1855      C1980   1.531       .  S
C1856      C2020   1.439       .  S
C1858      C2030   1.427       .  S
C1859      C1860   1.411       .  A
C1859      C1864   1.396       .  A
C1859      C2008   1.445       .  S
C1860      C1861   1.395       .  A
C1860      C2006   1.424       .  S
C1861      C1862   1.395       .  A
C1861      H1866   1.087       .  S
C1862      C1863   1.410       .  A
C1862      C2001   1.445       .  S
C1863      C1864   1.395       .  A
C1863      C2004   1.425       .  S
C1864      H1865   1.088       .  S
C1867      C1868   1.416       .  A
C1867      C1872   1.398       .  A
C1867      C2000   1.435       .  S
C1868      C1869   1.395       .  A
C1868      C1998   1.436       .  S
C1869      C1870   1.398       .  A
C1869      H1874   1.087       .  S
C1870      C1871   1.411       .  A
C1870      C1996   1.424       .  S
C1871      C1872   1.388       .  A
C1871      C1994   1.448       .  S
C1872      H1873   1.087       .  S
C1875      C1876   1.409       .  A
C1875      C1880   1.400       .  A
C1875      C1991   1.422       .  S
C1876      C1877   1.389       .  A
C1876      C1987   1.452       .  S
C1877      C1878   1.395       .  A
C1877      H1882   1.087       .  S
C1878      C1879   1.414       .  A
C1878      C1986   1.412       .  S
C1879      C1880   1.396       .  A
C1879      C1989   1.452       .  S
C1880      H1881   1.087       .  S
Zn1883     O1888   2.193       .  S
Zn1883     O1892   2.066       .  S
Zn1883     O1899   2.097       .  S
Zn1884     O1889   1.995       .  S
Zn1884     O1895   2.013       .  S
Zn1884     O1887   1.942       .  S
Zn1885     O1893   2.051       .  S
Zn1885     O1896   2.115       .  S
Zn1885     O1887   2.002       .  S
Zn1886     O1894   2.145       .  S
Zn1886     O1897   1.982       .  S
Zn1886     O1887   1.954       .  S
O1888      C1900   1.294       .  A
O1889      C1901   1.281       .  A
O1890      C1902   1.272   1_545  A
O1891      C1900   1.275       .  A
O1892      C1902   1.287       .  A
O1893      C1901   1.284       .  A
O1894      C1903   1.284       .  A
O1895      C1904   1.275       .  A
O1896      C1903   1.279       .  A
O1897      C1904   1.274       .  A
O1898      C1905   1.256       .  A
O1899      C1905   1.279       .  A
C1901      C1997   1.424       .  S
C1902      C2018   1.427       .  S
C1903      C1979   1.543       .  S
C1904      C2002   1.428       .  S
C1905      C1988   1.440       .  S
Zn1906     O1911   2.129       .  S
Zn1906     O1915   2.040       .  S
Zn1906     O1922   2.054       .  S
Zn1906     O1910   1.949       .  S
Zn1907     O1912   1.996       .  S
Zn1907     O1914   2.100       .  S
Zn1907     O1918   2.026       .  S
Zn1907     O1910   1.929       .  S
Zn1908     O1913   1.969       .  S
Zn1908     O1916   1.954       .  S
Zn1908     O1919   2.107       .  S
Zn1908     O1910   1.960       .  S
Zn1909     O1917   2.095       .  S
Zn1909     O1920   1.939       .  S
Zn1909     O1921   1.934       .  S
Zn1909     O1910   1.922       .  S
O1911      C1923   1.284       .  A
O1912      C1924   1.281       .  A
O1913      C1925   1.267       .  A
O1914      C1923   1.277       .  A
O1915      C1925   1.272       .  A
O1916      C1924   1.270       .  A
O1917      C1926   1.276       .  A
O1918      C1927   1.275       .  A
O1919      C1926   1.277       .  A
O1920      C1927   1.266       .  A
O1921      C1928   1.267       .  A
O1922      C1928   1.287       .  A
C1923      C1981   1.535       .  S
C1924      C1985   1.401       .  S
C1925      C2014   1.436       .  S
C1927      C2025   1.421       .  S
C1928      C1995   1.412       .  S
Zn1929     O1938   2.009       .  S
Zn1929     O1945   2.012   1_554  S
Zn1930     O1935   2.029       .  S
Zn1930     O1941   2.010       .  S
Zn1930     O1933   1.944       .  S
Zn1931     O1942   2.064       .  S
Zn1932     O1940   2.147       .  S
O1934      C1946   1.287       .  A
O1935      C1947   1.283       .  A
O1936      C1948   1.276       .  A
O1937      C1946   1.277       .  A
O1938      C1948   1.279   1_564  A
O1939      C1947   1.270       .  A
O1940      C1949   1.285       .  A
O1941      C1950   1.278       .  A
O1942      C1949   1.271       .  A
O1943      C1950   1.278       .  A
O1944      C1951   1.264       .  A
O1945      C1951   1.263       .  A
C1947      C2003   1.415       .  S
C1948      C1992   1.411   1_545  S
C1949      C1982   1.527       .  S
C1950      C1999   1.424       .  S
C1951      C2022   1.418       .  S
Zn1952     O1957   1.962       .  S
Zn1952     O1968   2.109       .  S
Zn1953     O1960   2.042       .  S
Zn1953     O1964   2.043       .  S
Zn1954     O1959   2.013       .  S
Zn1954     O1962   2.106       .  S
Zn1954     O1965   2.053       .  S
Zn1954     O1956   1.941   1_556  S
Zn1955     O1966   1.908       .  S
Zn1955     O1967   2.108       .  S
O1957      C1969   1.265       .  A
O1958      C1970   1.283       .  A
O1959      C1971   1.282       .  A
O1960      C1969   1.273       .  A
O1961      C1971   1.275   1_554  A
O1962      C1970   1.275       .  A
O1963      C1972   1.271       .  A
O1964      C1973   1.285       .  A
O1965      C1972   1.280       .  A
O1966      C1973   1.262       .  A
O1967      C1974   1.279       .  A
O1968      C1974   1.277       .  A
C1969      C1993   1.432       .  S
C1970      C1984   1.539       .  S
C1971      C2027   1.417       .  S
C1972      C1990   1.437       .  S
C1973      C2016   1.404       .  S
C1975      H1976   1.111       .  S
C1975      C1981   1.573       .  S
C1975      C1980   1.571       .  S
C1975      C1979   1.572       .  S
C1977      H1978   1.111       .  S
C1977      C1983   1.568       .  S
C1977      C1982   1.569       .  S
C1977      C1984   1.571       .  S
C1979      C1982   1.395       .  D
C1980      C1983   1.397       .  D
C1981      C1984   1.403       .  D
C1985      C1986   1.185       .  T
C1987      C1988   1.211       .  T
C1989      C1990   1.210       .  T
C1991      C1992   1.191       .  T
C1993      C1994   1.206       .  T
C1995      C1996   1.193       .  T
C1997      C1998   1.200       .  T
C1999      C2000   1.200       .  T
C2001      C2002   1.205       .  T
C2003      C2004   1.193       .  T
C2005      C2006   1.192       .  T
C2007      C2008   1.205       .  T
C2009      C2010   1.200       .  T
C2011      C2012   1.201       .  T
C2013      C2014   1.209       .  T
C2015      C2016   1.190       .  T
C2017      C2018   1.202       .  T
C2019      C2020   1.209       .  T
C2021      C2022   1.194       .  T
C2023      C2024   1.190       .  T
C2025      C2026   1.202       .  T
C2027      C2028   1.195       .  T
C2029      C2030   1.203       .  T
C2031      C2032   1.199       .  T
