geometry optimzed in LAMMPS
_audit_creation_date              2020-11-30 
_audit_creation_method            'lammps2cif' 
_symmetry_space_group_name_H-M    'P1' 
_symmetry_Int_Tables_number       1 
_symmetry_cell_setting            triclinic 
loop_ 
_symmetry_equiv_pos_as_xyz 
  x,y,z 
_cell_length_a                    47.67402322 
_cell_length_b                    30.373484815711077 
_cell_length_c                    28.12795219725756 
_cell_angle_alpha                 90.40357972439054 
_cell_angle_beta                  90.10825058966543 
_cell_angle_gamma                 89.8803886154592 
loop_ 
_atom_site_label 
_atom_site_type_symbol 
_atom_site_fract_x 
_atom_site_fract_y 
_atom_site_fract_z 
_atom_site_charge 
C1          C  0.10783291  0.82395502  0.37644262     0.80100
N2          N  0.09730264  0.86066903  0.35543903    -0.78200
C3          C  0.07934327  0.88743450  0.37950295     0.82500
N4          N  0.07238988  0.87761097  0.42480537    -0.78200
C5          C  0.08252864  0.84109011  0.44603432     0.82600
N6          N  0.09984409  0.81372078  0.42149025    -0.79900
C7          C  0.34922825  0.82545078  0.07567127     0.80100
N8          N  0.35993846  0.81414288  0.03258160    -0.78200
C9          C  0.37885772  0.84031182  0.01092136     0.82500
N10         N  0.38772705  0.87756029  0.03279886    -0.78200
C11         C  0.37759487  0.88931767  0.07603323     0.82600
N12         N  0.35847344  0.86289995  0.09759520    -0.79900
Zn13       Zn  0.46765846  0.80891716  0.66171570     1.49700
Zn14       Zn  0.02181109  0.81074165  0.72943865     1.49400
Zn15       Zn  0.46574427  0.86109106  0.75866888     1.49100
Zn16       Zn  0.46673187  0.75653876  0.75989053     1.49500
O17         O  0.48064795  0.80889183  0.72727323    -1.84300
O18         O  0.49974287  0.80508431  0.61607985    -0.74900
O19         O  0.03620483  0.86432466  0.76489916    -0.74700
O20         O  0.44310742  0.89955596  0.71523629    -0.74200
O21         O  0.03763749  0.81295951  0.66300564    -0.74900
O22         O  0.44672440  0.86456899  0.64606057    -0.74500
O23         O  0.49714928  0.89798913  0.78322627    -0.75100
O24         O  0.44399011  0.77266144  0.81806782    -0.74500
O25         O  0.03710594  0.75673306  0.76185460    -0.75200
O26         O  0.44196479  0.84552215  0.81425587    -0.74600
O27         O  0.49886248  0.71900233  0.78230778    -0.75100
O28         O  0.44186677  0.72060927  0.71639662    -0.75000
O29         O  0.44207095  0.75836444  0.64919609    -0.74800
C30         C  0.02635441  0.80927674  0.62211535     0.77000
C31         C  0.02354286  0.89661940  0.78440052     0.77500
C32         C  0.43839951  0.89724932  0.67081099     0.76400
C33         C  0.43571445  0.80958244  0.83452203     0.76800
C34         C  0.02565917  0.72359948  0.78132867     0.78000
C35         C  0.43368076  0.72592781  0.67369799     0.77000
C36         C  0.09469592  0.59887067  0.88221602     0.80100
N37         N  0.10540536  0.56252898  0.86026965    -0.78200
C38         C  0.12314769  0.53532898  0.88394249     0.82500
N39         N  0.13050114  0.54542036  0.92926760    -0.78200
C40         C  0.12035075  0.58183385  0.95117666     0.82600
N41         N  0.10271851  0.60902244  0.92739890    -0.79900
C42         C  0.35433157  0.60981556  0.58043415     0.80100
N43         N  0.34170498  0.62056646  0.53858403    -0.78200
C44         C  0.32204390  0.59357047  0.51896403     0.82500
N45         N  0.31547886  0.55579648  0.54151508    -0.78200
C46         C  0.32726231  0.54521273  0.58359817     0.82600
N47         N  0.34667002  0.57235327  0.60312614    -0.79900
Zn48       Zn  0.18893584  0.61402013  0.22788232     1.49700
Zn49       Zn  0.24142465  0.67465623  0.25819144     1.49400
Zn50       Zn  0.24626846  0.56980078  0.25791702     1.49100
Zn51       Zn  0.24271072  0.61875229  0.16043999     1.49500
O52         O  0.22977953  0.61979791  0.22601092    -1.84300
O53         O  0.17175955  0.66570761  0.26126695    -0.74900
O54         O  0.26370398  0.66214694  0.31839111    -0.74700
O55         O  0.21700836  0.52872420  0.28105797    -0.74200
O56         O  0.20740213  0.70985656  0.27909890    -0.74900
O57         O  0.17644864  0.55990702  0.26284639    -0.74500
O58         O  0.26622957  0.58906951  0.31583612    -0.75100
O59         O  0.26693673  0.56507771  0.14657100    -0.74500
O60         O  0.26514563  0.71156869  0.21453286    -0.75200
O61         O  0.27210858  0.53436454  0.21693545    -0.74600
O62         O  0.26584858  0.67248829  0.14760507    -0.75100
O63         O  0.20983967  0.61772255  0.11508592    -0.75000
O64         O  0.17273469  0.61077976  0.16222149    -0.74800
C65         C  0.18126928  0.70102138  0.27961481     0.77000
C66         C  0.27110832  0.62558023  0.33643268     0.77500
C67         C  0.19041378  0.52906078  0.28207565     0.76400
C68         C  0.27730779  0.53498750  0.17273095     0.76800
C69         C  0.27318508  0.70626064  0.17171779     0.78000
C70         C  0.18349861  0.61352231  0.12101890     0.77000
C71         C  0.10410800  0.32211223  0.37366400     0.80100
N72         N  0.11103643  0.31454129  0.41979814    -0.78200
C73         C  0.12807345  0.34298446  0.44341223     0.82500
N74         N  0.13870858  0.37804460  0.42022813    -0.78200
C75         C  0.13214486  0.38590440  0.37414047     0.82600
N76         N  0.11467498  0.35774576  0.35097487    -0.79900
C77         C  0.36027362  0.32469750  0.07757007     0.80100
N78         N  0.35188936  0.36280207  0.09905246    -0.78200
C79         C  0.33479214  0.39159724  0.07599652     0.82500
N80         N  0.32591398  0.38166996  0.03134855    -0.78200
C81         C  0.33430052  0.34404573  0.00940643     0.82600
N82         N  0.35127640  0.31554162  0.03269542    -0.79900
Zn83       Zn  0.24061240  0.31116467  0.66202168     1.49700
Zn84       Zn  0.24231466  0.25897414  0.76110889     1.49400
Zn85       Zn  0.24331407  0.36397930  0.75904996     1.49100
Zn86       Zn  0.18740563  0.31429444  0.72939830     1.49500
O87         O  0.22842006  0.31163929  0.72804944    -1.84300
O88         O  0.26474985  0.25891188  0.64851917    -0.74900
O89         O  0.26591120  0.27611405  0.81882680    -0.74700
O90         O  0.26548192  0.40129656  0.71475310    -0.74200
O91         O  0.26716491  0.22269086  0.71683089    -0.74900
O92         O  0.26345466  0.36491629  0.64661820    -0.74500
O93         O  0.26817797  0.34885510  0.81370774    -0.75100
O94         O  0.17311765  0.36618930  0.76725579    -0.74500
O95         O  0.20949467  0.22185545  0.78433051    -0.75200
O96         O  0.21243415  0.40093020  0.78566045    -0.74600
O97         O  0.17251013  0.26073556  0.76101206    -0.75100
O98         O  0.17062168  0.31802085  0.66372518    -0.75000
O99         O  0.20791109  0.31012270  0.61702452    -0.74800
C100        C  0.27383411  0.22700182  0.67317841     0.77000
C101        C  0.27464716  0.31316200  0.83439253     0.77500
C102        C  0.27178027  0.39779582  0.67098885     0.76400
C103        C  0.18590252  0.39789613  0.78754312     0.76800
C104        C  0.18298109  0.22765099  0.78207680     0.78000
C105        C  0.18160479  0.31466778  0.62268899     0.77000
C106        C  0.11017705  0.10398138  0.87675346     0.80100
N107        N  0.09919092  0.06774970  0.85485928    -0.78200
C108        C  0.08027560  0.04227640  0.87809918     0.82500
N109        N  0.07304054  0.05273220  0.92326585    -0.78200
C110        C  0.08370805  0.08873409  0.94512092     0.82600
N111        N  0.10182370  0.11498096  0.92151387    -0.79900
C112        C  0.35531235  0.11152264  0.58493273     0.80100
N113        N  0.36328360  0.12064449  0.53961997    -0.78200
C114        C  0.38173216  0.09389800  0.51671373     0.82500
N115        N  0.39167510  0.05770884  0.53907568    -0.78200
C116        C  0.38395766  0.04791460  0.58417083     0.82600
N117        N  0.36574624  0.07524070  0.60702885    -0.79900
Zn118      Zn  0.46684303  0.11883188  0.16188261     1.49700
Zn119      Zn  0.46688277  0.06666751  0.25721558     1.49400
Zn120      Zn  0.02209178  0.11643429  0.22716842     1.49100
Zn121      Zn  0.46712830  0.17148214  0.26202220     1.49500
O122        O  0.48075831  0.11906146  0.22698335    -1.84300
O123        O  0.44320092  0.06508682  0.14723156    -0.74900
O124        O  0.49794950  0.02961832  0.28085055    -0.74700
O125        O  0.03718076  0.11479410  0.16055070    -0.74200
O126        O  0.44335877  0.02901749  0.21493418    -0.74900
O127        O  0.49873034  0.12008497  0.11511926    -0.74500
O128        O  0.03761247  0.06353036  0.26209310    -0.75100
O129        O  0.50050808  0.20780192  0.28451164    -0.74500
O130        O  0.44382502  0.08164888  0.31307658    -0.75200
O131        O  0.03753034  0.16974855  0.25950617    -0.74600
O132        O  0.44344397  0.15407327  0.32005787    -0.75100
O133        O  0.44276639  0.20937423  0.21880918    -0.75000
O134        O  0.44266134  0.17141801  0.15093930    -0.74800
C135        C  0.43560854  0.03222878  0.17198864     0.77000
C136        C  0.02493349  0.03184951  0.28199993     0.77500
C137        C  0.02551729  0.11783716  0.11997996     0.76400
C138        C  0.02702464  0.20292158  0.28093013     0.76800
C139        C  0.43598446  0.11616580  0.33480170     0.78000
C140        C  0.43483731  0.20439525  0.17575445     0.77000
C141        C  0.39344801  0.06695509  0.43653439    -0.20400
C142        C  0.39137363  0.10286623  0.46773290    -0.07000
C143        C  0.40143232  0.14437724  0.45321797     0.13900
C144        C  0.41492599  0.14811049  0.40892868    -0.20500
C145        C  0.41862999  0.11140146  0.37868783    -0.07000
C146        C  0.40666029  0.07039997  0.39231221     0.13900
C147        C  0.40760762  0.02951883  0.36137306    -0.23800
H148        H  0.38525607  0.03535545  0.44758719     0.15100
H149        H  0.42350668  0.17966070  0.39873455     0.15200
C150        C  0.39930556  0.18426721  0.48513620    -0.23800
H151        H  0.39535709  0.00204244  0.37681129     0.05400
H152        H  0.42951998  0.01758489  0.35769380     0.08600
H153        H  0.39845066  0.03663333  0.32591480     0.08600
H154        H  0.41006882  0.17779044  0.51943185     0.08600
H155        H  0.37692022  0.19222811  0.49182403     0.08600
H156        H  0.40916660  0.21363184  0.46888983     0.05400
C157        C  0.05508066  0.13701312  0.99656813    -0.20400
C158        C  0.07315441  0.10076453  0.99240368    -0.07000
C159        C  0.07754489  0.07296326  0.03164904     0.13900
C160        C  0.06278104  0.08098967  0.07383548    -0.20500
C161        C  0.04309468  0.11526671  0.07700122    -0.07000
C162        C  0.03970344  0.14441735  0.03840105     0.13900
C163        C  0.02006002  0.18329274  0.04118461    -0.23800
H164        H  0.05186613  0.15815394  0.96612771     0.15100
H165        H  0.06555759  0.05901186  0.10369705     0.15200
C166        C  0.09750602  0.03449427  0.02877208    -0.23800
H167        H  0.02116564  0.20377682  0.00868273     0.05400
H168        H  0.02573386  0.20438485  0.07212556     0.08600
H169        H  0.99808980  0.17190671  0.04492757     0.08600
H170        H  0.11876750  0.04636190  0.01925921     0.08600
H171        H  0.09024842  0.01056988  0.00143609     0.08600
H172        H  0.09902844  0.01689683  0.06316621     0.05400
C173        C  0.31763402  0.18316709  0.67635746    -0.20400
C174        C  0.29356464  0.19544246  0.65085751    -0.07000
C175        C  0.28981124  0.17958657  0.60381142     0.13900
C176        C  0.31024878  0.15192382  0.58364540    -0.20500
C177        C  0.33444151  0.14000263  0.60897393    -0.07000
C178        C  0.33836218  0.15625336  0.65575976     0.13900
C179        C  0.36502270  0.14769516  0.68307496    -0.23800
H180        H  0.32074306  0.19611602  0.71199288     0.15100
H181        H  0.30733544  0.13946070  0.54776176     0.15200
C182        C  0.26408574  0.19079020  0.57496110    -0.23800
H183        H  0.36528459  0.16551404  0.71769280     0.05400
H184        H  0.38334197  0.15890661  0.66209231     0.08600
H185        H  0.36720041  0.11217946  0.69066255     0.08600
H186        H  0.26358735  0.22652898  0.56716061     0.08600
H187        H  0.24490512  0.18148336  0.59481090     0.08600
H188        H  0.26380194  0.17299312  0.54032925     0.05400
C189        C  0.12089642  0.17833985  0.84808949    -0.20400
C190        C  0.12882751  0.13407378  0.85081451    -0.07000
C191        C  0.15455692  0.12028848  0.83086870     0.13900
C192        C  0.17182586  0.15143544  0.80857152    -0.20500
C193        C  0.16376063  0.19589357  0.80523076    -0.07000
C194        C  0.13780702  0.20943323  0.82543619     0.13900
C195        C  0.12796497  0.25672157  0.82504460    -0.23800
H196        H  0.10117331  0.18862992  0.86383841     0.15100
H197        H  0.19168579  0.14096593  0.79354064     0.15200
C198        C  0.16426327  0.07321273  0.83458256    -0.23800
H199        H  0.10823736  0.26131814  0.84545810     0.05400
H200        H  0.12363429  0.26727424  0.78806228     0.08600
H201        H  0.14413027  0.27831117  0.84144309     0.08600
H202        H  0.14939058  0.05118612  0.81558598     0.08600
H203        H  0.16542527  0.06358055  0.87254891     0.08600
H204        H  0.18535254  0.06841888  0.81862495     0.05400
C205        C  0.31269777  0.34952320  0.88013381    -0.20400
C206        C  0.29244373  0.31595121  0.87767852    -0.07000
C207        C  0.28816085  0.28890535  0.91786000     0.13900
C208        C  0.30340631  0.29736643  0.95976647    -0.20500
C209        C  0.32245075  0.33237374  0.96262698    -0.07000
C210        C  0.32779093  0.35794647  0.92205484     0.13900
C211        C  0.34959432  0.39378309  0.92280734    -0.23800
H212        H  0.31638318  0.36986273  0.84925844     0.15100
H213        H  0.29949961  0.27787595  0.99121108     0.15200
C214        C  0.26647933  0.25287096  0.91794547    -0.23800
H215        H  0.35166986  0.40976365  0.88759534     0.05400
H216        H  0.37028888  0.37960694  0.93255939     0.08600
H217        H  0.34384003  0.41954060  0.94907921     0.08600
H218        H  0.27204356  0.22724880  0.89125585     0.08600
H219        H  0.24550151  0.26679982  0.90957955     0.08600
H220        H  0.26511874  0.23657356  0.95309251     0.05400
C221        C  0.39857401  0.31012637  0.13583385    -0.20400
C222        C  0.37874657  0.29329482  0.10333188    -0.07000
C223        C  0.37683506  0.24705916  0.09681632     0.13900
C224        C  0.39516529  0.21944838  0.12178435    -0.20500
C225        C  0.41533809  0.23626498  0.15341562    -0.07000
C226        C  0.41693751  0.28227385  0.16086477     0.13900
C227        C  0.43855413  0.30235730  0.19358228    -0.23800
H228        H  0.40009857  0.34543082  0.14103880     0.15100
H229        H  0.39370428  0.18412150  0.11654733     0.15200
C230        C  0.35514497  0.22601397  0.06482292    -0.23800
H231        H  0.43767081  0.33890056  0.19327832     0.05400
H232        H  0.45990964  0.29213291  0.18223650     0.08600
H233        H  0.43482561  0.29159986  0.23064954     0.08600
H234        H  0.35943234  0.23412690  0.02714746     0.08600
H235        H  0.33385343  0.23758171  0.07495078     0.08600
H236        H  0.35535105  0.18954351  0.06751146     0.05400
C237        C  0.15125813  0.35940459  0.57123504    -0.20400
C238        C  0.16380376  0.31860450  0.58026239    -0.07000
C239        C  0.16145941  0.28416499  0.54660221     0.13900
C240        C  0.14785050  0.29216860  0.50321083    -0.20500
C241        C  0.13732781  0.33414438  0.49249072    -0.07000
C242        C  0.13830978  0.36787080  0.52745420     0.13900
C243        C  0.12584497  0.41282197  0.51890659    -0.23800
H244        H  0.15295444  0.38550015  0.59758955     0.15100
H245        H  0.14682283  0.26626795  0.47655671     0.15200
C246        C  0.17348512  0.23921325  0.55636832    -0.23800
H247        H  0.12671620  0.43381330  0.55137219     0.05400
H248        H  0.10350975  0.40951023  0.50824020     0.08600
H249        H  0.13761486  0.43014153  0.49071085     0.08600
H250        H  0.16398475  0.22576863  0.58921367     0.08600
H251        H  0.19656355  0.24137456  0.56104699     0.08600
H252        H  0.16919316  0.21580353  0.52673540     0.05400
C253        C  0.06026012  0.30851119  0.32892829    -0.20400
C254        C  0.08518030  0.29180510  0.34830791    -0.07000
C255        C  0.09152996  0.24666117  0.34338245     0.13900
C256        C  0.07218949  0.21887348  0.32077381    -0.20500
C257        C  0.04654008  0.23498147  0.30313842    -0.07000
C258        C  0.04069139  0.28063943  0.30661579     0.13900
C259        C  0.51367021  0.30019503  0.28802723    -0.23800
H260        H  0.05586299  0.34344534  0.33215153     0.15100
H261        H  0.07698799  0.18407615  0.31756722     0.15200
C262        C  0.11898469  0.22789198  0.36073261    -0.23800
H263        H  0.51330264  0.33658130  0.29225546     0.05400
H264        H  0.49532660  0.28699573  0.30745916     0.08600
H265        H  0.51165193  0.29246202  0.24952726     0.08600
H266        H  0.12052839  0.23134457  0.39992795     0.08600
H267        H  0.13670194  0.24555489  0.34386597     0.08600
H268        H  0.12104745  0.19234891  0.35181397     0.05400
C269        C  0.17196538  0.43743138  0.36756475    -0.20400
C270        C  0.14604689  0.42298385  0.34938262    -0.07000
C271        C  0.13443970  0.44462317  0.30938467     0.13900
C272        C  0.14932221  0.47937769  0.28852356    -0.20500
C273        C  0.17552512  0.49287551  0.30618911    -0.07000
C274        C  0.18678820  0.47196723  0.34681035     0.13900
C275        C  0.21393052  0.48653430  0.36979655    -0.23800
H276        H  0.18100842  0.42129099  0.39823998     0.15100
H277        H  0.14059430  0.49576495  0.25772539     0.15200
C278        C  0.10623896  0.43234978  0.28894698    -0.23800
H279        H  0.21816947  0.46868956  0.40340071     0.05400
H280        H  0.21288494  0.52221555  0.37848844     0.08600
H281        H  0.23185423  0.47985995  0.34569001     0.08600
H282        H  0.08997199  0.43427019  0.31709169     0.08600
H283        H  0.10702368  0.39858004  0.27371541     0.08600
H284        H  0.09983220  0.45483336  0.25988625     0.05400
C285        C  0.31698927  0.42689511  0.14982860    -0.20400
C286        C  0.32319128  0.43068657  0.10130091    -0.11800
C287        C  0.31673997  0.47057597  0.07790292     0.13900
C288        C  0.30291158  0.50432669  0.10289809    -0.20500
C289        C  0.29497214  0.49960382  0.15071469    -0.07000
C290        C  0.30290472  0.46044918  0.17487457     0.13900
C291        C  0.29613273  0.45254423  0.22651393    -0.23800
H292        H  0.32214648  0.39654384  0.16794240     0.15100
H293        H  0.29766657  0.53436974  0.08430210     0.15200
C294        C  0.32452600  0.47835741  0.02674213    -0.23800
H295        H  0.30400828  0.42011880  0.23885087     0.05400
H296        H  0.27306464  0.45283460  0.23184794     0.08600
H297        H  0.30619537  0.47817957  0.24907093     0.08600
H298        H  0.31182311  0.45692626  0.00304916     0.08600
H299        H  0.34722330  0.47169913  0.02148309     0.08600
H300        H  0.32042097  0.51288982  0.01596074     0.05400
C301        C  0.31333240  0.46713320  0.58251878    -0.20400
C302        C  0.31694225  0.50609831  0.60874662    -0.07000
C303        C  0.30713463  0.50852087  0.65596002     0.13900
C304        C  0.29319707  0.47224693  0.67522876    -0.20500
C305        C  0.28854387  0.43345508  0.64859307    -0.07000
C306        C  0.29945543  0.43065401  0.60167109     0.13900
C307        C  0.29662998  0.38994976  0.57100100    -0.23800
H308        H  0.32089537  0.46568536  0.54620031     0.15100
H309        H  0.28519034  0.47491567  0.71115618     0.15200
C310        C  0.30991869  0.54994460  0.68544579    -0.23800
H311        H  0.30753119  0.39355402  0.53637827     0.05400
H312        H  0.27418923  0.38353176  0.56307244     0.08600
H313        H  0.30610645  0.36127121  0.58934724     0.08600
H314        H  0.29987003  0.57798233  0.66680282     0.08600
H315        H  0.33241767  0.55719671  0.69172809     0.08600
H316        H  0.29972660  0.54670273  0.72072046     0.05400
C317        C  0.32002476  0.63555314  0.44273085    -0.20400
C318        C  0.30747520  0.60512653  0.47383135    -0.07000
C319        C  0.28130982  0.58601881  0.46070198     0.13900
C320        C  0.26986604  0.59538787  0.41622838    -0.20500
C321        C  0.28320573  0.62354697  0.38444629    -0.07000
C322        C  0.30808464  0.64510963  0.39813368     0.13900
C323        C  0.32252343  0.67660060  0.36517117    -0.23800
H324        H  0.33967277  0.65095016  0.45258350     0.15100
H325        H  0.25037243  0.57978197  0.40555799     0.15200
C326        C  0.26471084  0.55592350  0.49263987    -0.23800
H327        H  0.34210183  0.68994280  0.38110655     0.05400
H328        H  0.30838652  0.70472156  0.35730335     0.08600
H329        H  0.32803145  0.65947165  0.33144782     0.08600
H330        H  0.26126655  0.57200612  0.52772497     0.08600
H331        H  0.27577670  0.52402694  0.49695828     0.08600
H332        H  0.24371599  0.54812211  0.47761027     0.05400
C333        C  0.14154180  0.43967846  0.80073044    -0.20400
C334        C  0.16964597  0.43197495  0.81369855    -0.07000
C335        C  0.18148769  0.45672650  0.85160889     0.13900
C336        C  0.16543133  0.48951945  0.87363386    -0.20500
C337        C  0.13777734  0.49855873  0.85945149    -0.07000
C338        C  0.12543579  0.47266176  0.82305631     0.13900
C339        C  0.09524727  0.47860558  0.80837998    -0.23800
H340        H  0.13221393  0.42025540  0.77238354     0.15100
H341        H  0.17492961  0.50896565  0.90180315     0.15200
C342        C  0.21076904  0.44856295  0.87024598    -0.23800
H343        H  0.08865018  0.45333611  0.78192262     0.05400
H344        H  0.09224540  0.51129725  0.79178480     0.08600
H345        H  0.08141539  0.47564592  0.83991424     0.08600
H346        H  0.22653840  0.45753437  0.84304599     0.08600
H347        H  0.21319102  0.41342117  0.88012340     0.08600
H348        H  0.21538433  0.46868124  0.90244569     0.05400
C349        C  0.14553062  0.57500717  0.07803332    -0.20400
C350        C  0.16497083  0.60964155  0.07919139    -0.07000
C351        C  0.16679011  0.63855178  0.04014444     0.13900
C352        C  0.14998924  0.63077733  0.99993351    -0.20500
C353        C  0.13208049  0.59428759  0.99762418    -0.07000
C354        C  0.12937682  0.56653777  0.03732588     0.13900
C355        C  0.10968610  0.52777882  0.03655295    -0.23800
H356        H  0.14393896  0.55323578  0.10828957     0.15100
H357        H  0.15200183  0.65178692  0.96912501     0.15200
C358        C  0.18627042  0.67757380  0.04072477    -0.23800
H359        H  0.10952891  0.51035446  0.07113836     0.05400
H360        H  0.11617416  0.50379195  0.00872969     0.08600
H361        H  0.08802355  0.53930125  0.02899861     0.08600
H362        H  0.20839974  0.66633010  0.04243315     0.08600
H363        H  0.18159571  0.69885808  0.07198597     0.08600
H364        H  0.18389753  0.69781417  0.00822098     0.05400
C365        C  0.41426294  0.69033599  0.60139073    -0.20400
C366        C  0.41395823  0.69429213  0.65123443    -0.07000
C367        C  0.39405810  0.66991039  0.67746508     0.13900
C368        C  0.37497781  0.64290332  0.65303781    -0.20500
C369        C  0.37503040  0.63953490  0.60319672    -0.07000
C370        C  0.39513230  0.66340094  0.57701764     0.13900
C371        C  0.39717713  0.66001737  0.52362950    -0.23800
H372        H  0.42962829  0.70858624  0.58116680     0.15100
H373        H  0.35951943  0.62477134  0.67312653     0.15200
C374        C  0.39199910  0.67296109  0.73090392    -0.23800
H375        H  0.41549003  0.67840665  0.50970760     0.05400
H376        H  0.37814406  0.67427924  0.50702212     0.08600
H377        H  0.39956042  0.62501504  0.51268779     0.08600
H378        H  0.38851447  0.70770576  0.74197163     0.08600
H379        H  0.41151143  0.66017261  0.74742070     0.08600
H380        H  0.37429920  0.65317162  0.74486108     0.05400
C381        C  0.03362896  0.67213392  0.84771702    -0.20400
C382        C  0.04335177  0.69009406  0.80491610    -0.07000
C383        C  0.06957332  0.67615326  0.78654116     0.13900
C384        C  0.08553451  0.64537760  0.81205318    -0.20500
C385        C  0.07625445  0.62903789  0.85577696    -0.07000
C386        C  0.04984573  0.64208548  0.87357979     0.13900
C387        C  0.03840590  0.62367449  0.91922786    -0.23800
H388        H  0.01346750  0.68251094  0.86167037     0.15100
H389        H  0.10572270  0.63478495  0.79839915     0.15200
C390        C  0.08062987  0.69269236  0.73977812    -0.23800
H391        H  0.01684600  0.63583515  0.92659197     0.05400
H392        H  0.05189442  0.63365314  0.94959963     0.08600
H393        H  0.03764235  0.58718650  0.91686657     0.08600
H394        H  0.08496666  0.72850425  0.74222583     0.08600
H395        H  0.06505254  0.68627719  0.71117205     0.08600
H396        H  0.10054169  0.67606920  0.72966068     0.05400
C397        C  0.39950442  0.95169858  0.66843539    -0.20400
C398        C  0.42374180  0.93410764  0.64739853    -0.07000
C399        C  0.43449389  0.95350856  0.60584997     0.13900
C400        C  0.42099220  0.99038529  0.58684961    -0.20500
C401        C  0.39664460  0.00853782  0.60761153    -0.07000
C402        C  0.38549797  0.98816490  0.64881069     0.13900
C403        C  0.35866947  0.00338587  0.67197106    -0.23800
H404        H  0.39135719  0.93647562  0.70029577     0.15100
H405        H  0.42993142  0.00536629  0.55551850     0.15200
C406        C  0.46087441  0.93664683  0.58228285    -0.23800
H407        H  0.35238302  0.98154569  0.70160118     0.05400
H408        H  0.34135641  0.00332706  0.64551526     0.08600
H409        H  0.36142824  0.03678551  0.68718758     0.08600
H410        H  0.45754250  0.90266772  0.56870880     0.08600
H411        H  0.47848555  0.93686430  0.60817995     0.08600
H412        H  0.46706962  0.95725467  0.55158797     0.05400
C413        C  0.02390131  0.96353287  0.83516295    -0.20400
C414        C  0.03941475  0.93306919  0.80795757    -0.07000
C415        C  0.06884515  0.93932695  0.80352283     0.13900
C416        C  0.08155663  0.97564948  0.82622063    -0.20500
C417        C  0.06587900  0.00536476  0.85380316    -0.07000
C418        C  0.03656198  0.99936046  0.85797405     0.13900
C419        C  0.01806364  0.03129317  0.88498070    -0.23800
H420        H  0.00144749  0.95941909  0.83892567     0.15100
H421        H  0.10399552  0.98054210  0.82307474     0.15200
C422        C  0.08714913  0.90852205  0.77494116    -0.23800
H423        H  0.99544888  0.02351729  0.88051998     0.05400
H424        H  0.02143440  0.06525241  0.87181711     0.08600
H425        H  0.02267616  0.02981829  0.92359753     0.08600
H426        H  0.07989046  0.90748884  0.73742194     0.08600
H427        H  0.08651158  0.87501967  0.79041452     0.08600
H428        H  0.10941142  0.91924859  0.77490958     0.05400
C429        C  0.39371863  0.92620315  0.15015417    -0.20400
C430        C  0.38929323  0.92843349  0.10093583    -0.07000
C431        C  0.39763613  0.96679133  0.07641054     0.13900
C432        C  0.41180007  0.00026592  0.10110127    -0.20500
C433        C  0.41806379  0.99691046  0.14979477    -0.07000
C434        C  0.40796882  0.95967701  0.17502046     0.13900
C435        C  0.41211263  0.95409887  0.22785971    -0.23800
H436        H  0.38694710  0.89714343  0.16908562     0.15100
H437        H  0.41860384  0.02895177  0.08159848     0.15200
C438        C  0.39133900  0.97344193  0.02438313    -0.23800
H439        H  0.40186512  0.92379358  0.24119560     0.05400
H440        H  0.40273763  0.98245886  0.24728268     0.08600
H441        H  0.43480081  0.95132278  0.23626387     0.08600
H442        H  0.36858189  0.96865932  0.01774360     0.08600
H443        H  0.40379231  0.95019288  0.00234888     0.08600
H444        H  0.39683392  0.00716720  0.01260768     0.05400
C445        C  0.39789575  0.84463701  0.88115219    -0.20400
C446        C  0.41866875  0.81186259  0.87831428    -0.07000
C447        C  0.42423644  0.78536905  0.91853002     0.13900
C448        C  0.40981335  0.79397251  0.96111602    -0.20500
C449        C  0.39026267  0.82833944  0.96423341    -0.07000
C450        C  0.38355824  0.85306832  0.92360985     0.13900
C451        C  0.36125451  0.88827410  0.92503134    -0.23800
H452        H  0.39327477  0.86443054  0.85016817     0.15100
H453        H  0.41465014  0.77508760  0.99266717     0.15200
C454        C  0.44634339  0.74981672  0.91775993    -0.23800
H455        H  0.35815827  0.90368191  0.88970824     0.05400
H456        H  0.36724259  0.91455119  0.95055327     0.08600
H457        H  0.34100421  0.87365768  0.93621953     0.08600
H458        H  0.46696099  0.76410731  0.90807853     0.08600
H459        H  0.44051950  0.72386121  0.89161228     0.08600
H460        H  0.44864323  0.73385734  0.95297035     0.05400
C461        C  0.29222145  0.74007192  0.09872849    -0.20400
C462        C  0.29149765  0.73949288  0.14864137    -0.07000
C463        C  0.30895085  0.76904981  0.17434609     0.13900
C464        C  0.32709364  0.79699171  0.14936924    -0.20500
C465        C  0.32851533  0.79635732  0.09944509    -0.07000
C466        C  0.31030918  0.76787029  0.07377819     0.13900
C467        C  0.30909809  0.76668647  0.02013068    -0.23800
H468        H  0.27855544  0.71822331  0.07877640     0.15100
H469        H  0.34080003  0.81884142  0.16922393     0.15200
C470        C  0.30940739  0.77077769  0.22795362    -0.23800
H471        H  0.29186448  0.74533371  0.00679212     0.05400
H472        H  0.32891030  0.75305665  0.00549241     0.08600
H473        H  0.30534534  0.80033028  0.00625872     0.08600
H474        H  0.31497176  0.73793036  0.24231740     0.08600
H475        H  0.28858214  0.78126219  0.24155454     0.08600
H476        H  0.32508313  0.79473275  0.24166636     0.05400
C477        C  0.08163510  0.95157965  0.32513039    -0.20400
C478        C  0.06576393  0.92512013  0.35568158    -0.07000
C479        C  0.03690556  0.93430806  0.36198842     0.13900
C480        C  0.02485420  0.96958565  0.33783496    -0.20500
C481        C  0.04047584  0.99631312  0.30708298    -0.07000
C482        C  0.06948710  0.98734853  0.30099222     0.13900
C483        C  0.08777313  0.01447735  0.26888397    -0.23800
H484        H  0.10373810  0.94435755  0.32040381     0.15100
H485        H  0.00273544  0.97617942  0.34322166     0.15200
C486        C  0.01810880  0.90624917  0.39253439    -0.23800
H487        H  0.10963835  0.00180494  0.26769091     0.05400
H488        H  0.08863814  0.04897115  0.28209705     0.08600
H489        H  0.07933485  0.01365122  0.23207207     0.08600
H490        H  0.02408511  0.90968004  0.43051075     0.08600
H491        H  0.01964043  0.87123356  0.38119741     0.08600
H492        H  0.99573455  0.91618878  0.38967119     0.05400
C493        C  0.05738913  0.79040781  0.49949587    -0.20400
C494        C  0.07230478  0.82976259  0.49373824    -0.07000
C495        C  0.07432682  0.85992255  0.53204956     0.13900
C496        C  0.06052543  0.85069766  0.57475774    -0.20500
C497        C  0.04396616  0.81291863  0.57939087    -0.07000
C498        C  0.04277312  0.78190128  0.54175878     0.13900
C499        C  0.02614774  0.73998161  0.54607376    -0.23800
H500        H  0.05592106  0.76742294  0.46993351     0.15100
H501        H  0.06141474  0.87429156  0.60383492     0.15200
C502        C  0.09084247  0.90200143  0.52793674    -0.23800
H503        H  0.02847451  0.71868689  0.51405062     0.05400
H504        H  0.50203884  0.74801186  0.54915383     0.08600
H505        H  0.03359359  0.72114642  0.57736377     0.08600
H506        H  0.08125742  0.92372194  0.50082619     0.08600
H507        H  0.11280510  0.89430720  0.51772204     0.08600
H508        H  0.09131319  0.92059615  0.56207376     0.05400
C509        C  0.16635555  0.77750109  0.29873068    -0.20400
C510        C  0.16157506  0.73210418  0.30291990    -0.07000
C511        C  0.13882877  0.71728614  0.33091938     0.13900
C512        C  0.12174234  0.74822858  0.35414374    -0.20500
C513        C  0.12638806  0.79357635  0.34972381    -0.07000
C514        C  0.14889200  0.80848662  0.32134244     0.13900
C515        C  0.15528912  0.85678940  0.31603731    -0.23800
H516        H  0.18382031  0.78879099  0.27744556     0.15100
H517        H  0.10446975  0.73689640  0.37586154     0.15200
C518        C  0.13293436  0.66899387  0.33814640    -0.23800
H519        H  0.17467672  0.86220973  0.29505551     0.05400
H520        H  0.15832867  0.87214277  0.35161294     0.08600
H521        H  0.13784438  0.87348401  0.29717711     0.08600
H522        H  0.15185143  0.65239971  0.35263950     0.08600
H523        H  0.12677478  0.65335033  0.30393697     0.08600
H524        H  0.11546601  0.66372425  0.36354555     0.05400
C525        C  0.60656537  0.82251311  0.37438993     0.80100
N526        N  0.59611898  0.85944207  0.35372420    -0.78200
C527        C  0.57833705  0.88623624  0.37812796     0.82500
N528        N  0.57151782  0.87621862  0.42343717    -0.78200
C529        C  0.58157873  0.83946661  0.44429853     0.82600
N530        N  0.59870224  0.81207788  0.41942718    -0.79900
C531        C  0.84928583  0.82586229  0.07641845     0.80100
N532        N  0.85995785  0.81432795  0.03337292    -0.78200
C533        C  0.87916453  0.84007661  0.01185129     0.82500
N534        N  0.88829389  0.87716150  0.03372799    -0.78200
C535        C  0.87816245  0.88909319  0.07689764     0.82600
N536        N  0.85881583  0.86307756  0.09841171    -0.79900
Zn537      Zn  0.96778646  0.80903879  0.66255629     1.49700
Zn538      Zn  0.52183522  0.80997754  0.72838340     1.49400
Zn539      Zn  0.96560723  0.86139277  0.75959360     1.49100
Zn540      Zn  0.96686830  0.75677380  0.76067413     1.49500
O541        O  0.98065920  0.80926731  0.72817544    -1.84300
O542        O  0.99997606  0.80531907  0.61694788    -0.74900
O543        O  0.53643684  0.86350836  0.76380607    -0.74700
O544        O  0.94303182  0.89969993  0.71594886    -0.74200
O545        O  0.53758622  0.81185636  0.66185388    -0.74900
O546        O  0.94686655  0.86467865  0.64681763    -0.74500
O547        O  0.99687315  0.89861239  0.78436723    -0.75100
O548        O  0.94426081  0.77277523  0.81900224    -0.74500
O549        O  0.53698458  0.75584662  0.76085416    -0.75200
O550        O  0.94174458  0.84562221  0.81504032    -0.74600
O551        O  0.99909798  0.71938979  0.78284258    -0.75100
O552        O  0.94192127  0.72073052  0.71733740    -0.75000
O553        O  0.94211586  0.75846164  0.65019035    -0.74800
C554        C  0.52616022  0.80844967  0.62104684     0.77000
C555        C  0.52381146  0.89584654  0.78331416     0.77500
C556        C  0.93845877  0.89736597  0.67148085     0.76400
C557        C  0.93576912  0.80960374  0.83538276     0.76800
C558        C  0.52543752  0.72293230  0.78059772     0.78000
C559        C  0.93367822  0.72602065  0.67466846     0.77000
C560        C  0.59455594  0.59862114  0.88206949     0.80100
N561        N  0.60510512  0.56206313  0.86029740    -0.78200
C562        C  0.62283709  0.53483486  0.88397257     0.82500
N563        N  0.63030711  0.54514188  0.92919208    -0.78200
C564        C  0.62037224  0.58178547  0.95092704     0.82600
N565        N  0.60275832  0.60898653  0.92711578    -0.79900
C566        C  0.85301536  0.61141559  0.58166723     0.80100
N567        N  0.83996153  0.62310131  0.54049868    -0.78200
C568        C  0.81999594  0.59670062  0.52087059     0.82500
N569        N  0.81348263  0.55858903  0.54277687    -0.78200
C570        C  0.82570433  0.54689034  0.58419223     0.82600
N571        N  0.84553321  0.57342515  0.60357084    -0.79900
Zn572      Zn  0.68931542  0.61319926  0.22735426     1.49700
Zn573      Zn  0.74104887  0.67511014  0.25788661     1.49400
Zn574      Zn  0.74701374  0.57035646  0.25823693     1.49100
Zn575      Zn  0.74306380  0.61910127  0.16041554     1.49500
O576        O  0.73007685  0.61986316  0.22590588    -1.84300
O577        O  0.67154690  0.66455077  0.26027963    -0.74900
O578        O  0.76281570  0.66342976  0.31868080    -0.74700
O579        O  0.71797570  0.52866741  0.28125179    -0.74200
O580        O  0.70666993  0.70976485  0.27778991    -0.74900
O581        O  0.67725779  0.55894113  0.26234938    -0.74500
O582        O  0.76648449  0.59042881  0.31658432    -0.75100
O583        O  0.76740488  0.56560090  0.14681335    -0.74500
O584        O  0.76484476  0.71222657  0.21463906    -0.75200
O585        O  0.77317508  0.53518795  0.21722513    -0.74600
O586        O  0.76607018  0.67300580  0.14780587    -0.75100
O587        O  0.71032469  0.61794211  0.11470474    -0.75000
O588        O  0.67326309  0.60971961  0.16161529    -0.74800
C589        C  0.68063380  0.70029196  0.27823513     0.77000
C590        C  0.77058760  0.62723348  0.33711656     0.77500
C591        C  0.69136948  0.52842018  0.28188155     0.76400
C592        C  0.77810979  0.53573621  0.17289877     0.76800
C593        C  0.77311954  0.70689678  0.17196438     0.78000
C594        C  0.68401741  0.61309469  0.12046915     0.77000
C595        C  0.60427331  0.32200897  0.37307919     0.80100
N596        N  0.61110761  0.31437632  0.41924922    -0.78200
C597        C  0.62829175  0.34259685  0.44289286     0.82500
N598        N  0.63918888  0.37745306  0.41968790    -0.78200
C599        C  0.63271847  0.38535153  0.37357589     0.82600
N600        N  0.61509507  0.35744501  0.35037123    -0.79900
C601        C  0.86020258  0.32447575  0.07762183     0.80100
N602        N  0.85189424  0.36275666  0.09885563    -0.78200
C603        C  0.83478301  0.39147770  0.07568011     0.82500
N604        N  0.82590473  0.38127105  0.03110514    -0.78200
C605        C  0.83425763  0.34355124  0.00933683     0.82600
N606        N  0.85119485  0.31510254  0.03279170    -0.79900
Zn607      Zn  0.74038272  0.31045937  0.66205867     1.49700
Zn608      Zn  0.74202666  0.25864502  0.76128145     1.49400
Zn609      Zn  0.74294736  0.36375072  0.75895749     1.49100
Zn610      Zn  0.68711331  0.31371659  0.72918652     1.49500
O611        O  0.72813781  0.31122330  0.72805250    -1.84300
O612        O  0.76456303  0.25821547  0.64880960    -0.74900
O613        O  0.76555715  0.27598705  0.81894952    -0.74700
O614        O  0.76474373  0.40137721  0.71418178    -0.74200
O615        O  0.76701879  0.22227104  0.71728268    -0.74900
O616        O  0.76323921  0.36414656  0.64655205    -0.74500
O617        O  0.76810337  0.34868556  0.81344885    -0.75100
O618        O  0.67271118  0.36545001  0.76708828    -0.74500
O619        O  0.70919916  0.22150763  0.78446686    -0.75200
O620        O  0.71193352  0.40030251  0.78607073    -0.74600
O621        O  0.67220495  0.26009304  0.76066427    -0.75100
O622        O  0.67039691  0.31752788  0.66348324    -0.75000
O623        O  0.70771508  0.30933361  0.61691144    -0.74800
C624        C  0.77370414  0.22645288  0.67362461     0.77000
C625        C  0.77445790  0.31300657  0.83431021     0.77500
C626        C  0.77120178  0.39751258  0.67049322     0.76400
C627        C  0.68539510  0.39704897  0.78773801     0.76800
C628        C  0.68267722  0.22712553  0.78193429     0.78000
C629        C  0.68141090  0.31404457  0.62248600     0.77000
C630        C  0.61006161  0.10312588  0.87652200     0.80100
N631        N  0.59921231  0.06679356  0.85463227    -0.78200
C632        C  0.58040501  0.04113522  0.87787896     0.82500
N633        N  0.57315623  0.05151776  0.92305753    -0.78200
C634        C  0.58366824  0.08763435  0.94490176     0.82600
N635        N  0.60166392  0.11407284  0.92127270    -0.79900
C636        C  0.85559808  0.11173642  0.58541761     0.80100
N637        N  0.86353946  0.12087428  0.54009909    -0.78200
C638        C  0.88196784  0.09411866  0.51714879     0.82500
N639        N  0.89191657  0.05789449  0.53945039    -0.78200
C640        C  0.88422963  0.04811515  0.58458242     0.82600
N641        N  0.86604596  0.07545921  0.60747291    -0.79900
Zn642      Zn  0.96708881  0.11897895  0.16222170     1.49700
Zn643      Zn  0.96719761  0.06689245  0.25789203     1.49400
Zn644      Zn  0.52189676  0.11626165  0.22678451     1.49100
Zn645      Zn  0.96721551  0.17162348  0.26228514     1.49500
O646        O  0.98095730  0.11922443  0.22738928    -1.84300
O647        O  0.94388314  0.06478916  0.14743699    -0.74900
O648        O  0.99832513  0.03001030  0.28176831    -0.74700
O649        O  0.53693301  0.11427671  0.16012717    -0.74200
O650        O  0.94398615  0.02909586  0.21539155    -0.74900
O651        O  0.99900950  0.12084229  0.11551555    -0.74500
O652        O  0.53730376  0.06334697  0.26182447    -0.75100
O653        O  0.00054082  0.20794661  0.28481451    -0.74500
O654        O  0.94391808  0.08176707  0.31363254    -0.75200
O655        O  0.53745208  0.16968463  0.25895811    -0.74600
O656        O  0.94350503  0.15423602  0.32028336    -0.75100
O657        O  0.94284397  0.20946598  0.21901991    -0.75000
O658        O  0.94257740  0.17128568  0.15129575    -0.74800
C659        C  0.93640317  0.03195198  0.17232960     0.77000
C660        C  0.52455204  0.03154221  0.28137739     0.77500
C661        C  0.52523817  0.11705562  0.11955523     0.76400
C662        C  0.52699165  0.20285194  0.28047843     0.76800
C663        C  0.93602705  0.11638013  0.33514927     0.78000
C664        C  0.93479760  0.20433746  0.17604719     0.77000
C665        C  0.89284140  0.06768513  0.43637888    -0.20400
C666        C  0.89158787  0.10321750  0.46820594    -0.07000
C667        C  0.90240479  0.14443318  0.45431637     0.13900
C668        C  0.91578074  0.14821078  0.40993851    -0.20500
C669        C  0.91864576  0.11181171  0.37901664    -0.07000
C670        C  0.90591920  0.07121146  0.39202361     0.13900
C671        C  0.90587498  0.03090533  0.36018787    -0.23800
H672        H  0.88409844  0.03632449  0.44700860     0.15100
H673        H  0.92497474  0.17946890  0.40023313     0.15200
C674        C  0.90123260  0.18386360  0.48703597    -0.23800
H675        H  0.89298772  0.00389128  0.37508650     0.05400
H676        H  0.92748347  0.01776830  0.35614916     0.08600
H677        H  0.89688221  0.03922794  0.32492211     0.08600
H678        H  0.91201521  0.17626885  0.52103959     0.08600
H679        H  0.87905058  0.19280740  0.49421747     0.08600
H680        H  0.91160791  0.21299583  0.47122422     0.05400
C681        C  0.55486158  0.13585027  0.99611612    -0.20400
C682        C  0.57298041  0.09964278  0.99211024    -0.07000
C683        C  0.57728937  0.07186953  0.03141030     0.13900
C684        C  0.56246432  0.07996120  0.07352573    -0.20500
C685        C  0.54278354  0.11425551  0.07655667    -0.07000
C686        C  0.53940830  0.14329531  0.03785678     0.13900
C687        C  0.51970245  0.18210526  0.04043793    -0.23800
H688        H  0.55168147  0.15693634  0.96562106     0.15100
H689        H  0.56520912  0.05804980  0.10345281     0.15200
C690        C  0.59724477  0.03338467  0.02868344    -0.23800
H691        H  0.52082460  0.20250924  0.00787919     0.05400
H692        H  0.52529503  0.20329911  0.07134050     0.08600
H693        H  0.49774409  0.17064190  0.04411534     0.08600
H694        H  0.61852521  0.04522399  0.01925079     0.08600
H695        H  0.59002315  0.00942738  0.00135393     0.08600
H696        H  0.59870630  0.01583073  0.06311107     0.05400
C697        C  0.81780925  0.18334574  0.67673279    -0.20400
C698        C  0.79352716  0.19496110  0.65144282    -0.07000
C699        C  0.78967297  0.17866384  0.60459880     0.13900
C700        C  0.81024258  0.15128713  0.58437303    -0.20500
C701        C  0.83465160  0.14005844  0.60946192    -0.07000
C702        C  0.83865542  0.15668914  0.65607092     0.13900
C703        C  0.86550708  0.14879533  0.68308192    -0.23800
H704        H  0.82098314  0.19663295  0.71220829     0.15100
H705        H  0.80725924  0.13848910  0.54864138     0.15200
C706        C  0.76369931  0.18909574  0.57605037    -0.23800
H707        H  0.86577217  0.16676058  0.71761227     0.05400
H708        H  0.88363152  0.16029693  0.66180239     0.08600
H709        H  0.86802666  0.11335428  0.69078982     0.08600
H710        H  0.76283712  0.22475889  0.56795089     0.08600
H711        H  0.74471318  0.17952583  0.59628304     0.08600
H712        H  0.76338754  0.17103214  0.54157925     0.05400
C713        C  0.62040476  0.17738746  0.84716265    -0.20400
C714        C  0.62863976  0.13330851  0.85058474    -0.07000
C715        C  0.65458987  0.11977420  0.83129889     0.13900
C716        C  0.67179598  0.15098941  0.80898887    -0.20500
C717        C  0.66345829  0.19527547  0.80497985    -0.07000
C718        C  0.63725058  0.20854866  0.82446253     0.13900
C719        C  0.62704138  0.25562734  0.82323394    -0.23800
H720        H  0.60050000  0.18746836  0.86240185     0.15100
H721        H  0.69183108  0.14070383  0.79449125     0.15200
C722        C  0.66457711  0.07290023  0.83573024    -0.23800
H723        H  0.60710423  0.26005116  0.84309854     0.05400
H724        H  0.62294775  0.26569210  0.78601297     0.08600
H725        H  0.64289000  0.27770839  0.83976046     0.08600
H726        H  0.64995699  0.05045101  0.81674301     0.08600
H727        H  0.66557110  0.06366596  0.87382747     0.08600
H728        H  0.68579057  0.06828742  0.82019114     0.05400
C729        C  0.81256128  0.34928419  0.88008394    -0.20400
C730        C  0.79230777  0.31572031  0.87757853    -0.07000
C731        C  0.78813927  0.28848732  0.91766913     0.13900
C732        C  0.80345309  0.29681155  0.95954610    -0.20500
C733        C  0.82246427  0.33185175  0.96249108    -0.07000
C734        C  0.82772301  0.35756364  0.92197524     0.13900
C735        C  0.84949282  0.39344196  0.92276024    -0.23800
H736        H  0.81618945  0.36974194  0.84928111     0.15100
H737        H  0.79960424  0.27720642  0.99092747     0.15200
C738        C  0.76651035  0.25237352  0.91772307    -0.23800
H739        H  0.85155148  0.40946563  0.88756817     0.05400
H740        H  0.87020287  0.37931136  0.93249663     0.08600
H741        H  0.84369227  0.41915500  0.94904317     0.08600
H742        H  0.77206351  0.22685861  0.89090722     0.08600
H743        H  0.74549577  0.26625671  0.90953597     0.08600
H744        H  0.76523910  0.23594293  0.95280702     0.05400
C745        C  0.89869688  0.31005004  0.13560200    -0.20400
C746        C  0.87863668  0.29313105  0.10357156    -0.07000
C747        C  0.87647449  0.24685789  0.09764897     0.13900
C748        C  0.89482446  0.21927616  0.12263658    -0.20500
C749        C  0.91525016  0.23617073  0.15374124    -0.07000
C750        C  0.91707646  0.28223024  0.16066081     0.13900
C751        C  0.93896335  0.30237558  0.19280921    -0.23800
H752        H  0.90040156  0.34538342  0.14037515     0.15100
H753        H  0.89319202  0.18391996  0.11781732     0.15200
C754        C  0.85449074  0.22577482  0.06627619    -0.23800
H755        H  0.93822699  0.33891981  0.19214012     0.05400
H756        H  0.96020964  0.29182928  0.18121506     0.08600
H757        H  0.93540788  0.29197955  0.23004856     0.08600
H758        H  0.85860001  0.23343412  0.02843060     0.08600
H759        H  0.83332261  0.23774221  0.07661057     0.08600
H760        H  0.85451890  0.18933776  0.06941998     0.05400
C761        C  0.65140280  0.35905916  0.57075899    -0.20400
C762        C  0.66365741  0.31808818  0.58000569    -0.07000
C763        C  0.66107803  0.28355101  0.54651499     0.13900
C764        C  0.64758226  0.29162434  0.50302870    -0.20500
C765        C  0.63738633  0.33374607  0.49206899    -0.07000
C766        C  0.63855220  0.36757560  0.52690680     0.13900
C767        C  0.62638533  0.41269295  0.51815732    -0.23800
H768        H  0.65325609  0.38522540  0.59700111     0.15100
H769        H  0.64639370  0.26563650  0.47649251     0.15200
C770        C  0.67273729  0.23842292  0.55656777    -0.23800
H771        H  0.62734167  0.43376296  0.55055725     0.05400
H772        H  0.60404474  0.40969913  0.50741302     0.08600
H773        H  0.63830512  0.42974974  0.48995530     0.08600
H774        H  0.66307346  0.22530768  0.58943390     0.08600
H775        H  0.69582254  0.24017236  0.56136153     0.08600
H776        H  0.66831664  0.21496909  0.52703033     0.05400
C777        C  0.56000784  0.30836841  0.32948769    -0.20400
C778        C  0.58528615  0.29183314  0.34764901    -0.07000
C779        C  0.59194053  0.24692882  0.34153893     0.13900
C780        C  0.57256020  0.21913027  0.31901684    -0.20500
C781        C  0.54655747  0.23499174  0.30258926    -0.07000
C782        C  0.54039641  0.28049249  0.30724743     0.13900
C783        C  0.01436859  0.30046482  0.28600205    -0.23800
H784        H  0.55537438  0.34315037  0.33362353     0.15100
H785        H  0.57762301  0.18449940  0.31495122     0.15200
C786        C  0.61974706  0.22846854  0.35761553    -0.23800
H787        H  0.01422608  0.33691871  0.28946206     0.05400
H788        H  0.99567798  0.28793894  0.30500741     0.08600
H789        H  0.01278616  0.29206578  0.24760258     0.08600
H790        H  0.62175869  0.23148331  0.39679443     0.08600
H791        H  0.63710460  0.24670468  0.34039640     0.08600
H792        H  0.62197379  0.19308347  0.34808279     0.05400
C793        C  0.67316943  0.43557019  0.36624916    -0.20400
C794        C  0.64684498  0.42219987  0.34883196    -0.07000
C795        C  0.63498763  0.44474664  0.30968089     0.13900
C796        C  0.64999932  0.47936434  0.28885384    -0.20500
C797        C  0.67656595  0.49195330  0.30578346    -0.07000
C798        C  0.68812797  0.47003214  0.34556730     0.13900
C799        C  0.71574546  0.48336603  0.36777012    -0.23800
H800        H  0.68238190  0.41865616  0.39628938     0.15100
H801        H  0.64101975  0.49644813  0.25871536     0.15200
C802        C  0.60634893  0.43364748  0.29024740    -0.23800
H803        H  0.72024747  0.46471063  0.40075522     0.05400
H804        H  0.71524773  0.51888611  0.37735911     0.08600
H805        H  0.73323716  0.47666919  0.34276947     0.08600
H806        H  0.59052657  0.43565206  0.31910629     0.08600
H807        H  0.60648017  0.40007946  0.27444944     0.08600
H808        H  0.59980836  0.45674778  0.26184390     0.05400
C809        C  0.81921018  0.42882742  0.15003960    -0.20400
C810        C  0.82333967  0.43098078  0.10070076    -0.11800
C811        C  0.81514313  0.46973302  0.07652132     0.13900
C812        C  0.80160275  0.50365645  0.10168591    -0.20500
C813        C  0.79570794  0.50041174  0.15050043    -0.07000
C814        C  0.80551701  0.46267960  0.17530437     0.13900
C815        C  0.80132978  0.45670148  0.22803799    -0.23800
H816        H  0.82575525  0.39952278  0.16885942     0.15100
H817        H  0.79496016  0.53266476  0.08246134     0.15200
C818        C  0.82082775  0.47635658  0.02434965    -0.23800
H819        H  0.81080574  0.42553582  0.24093213     0.05400
H820        H  0.77859634  0.45546504  0.23637766     0.08600
H821        H  0.81147933  0.48410998  0.24787540     0.08600
H822        H  0.80785839  0.45353328  0.00266866     0.08600
H823        H  0.84345326  0.47098005  0.01701403     0.08600
H824        H  0.81547820  0.51025913  0.01282356     0.05400
C825        C  0.80801694  0.47067618  0.57959915    -0.20400
C826        C  0.81581436  0.50664284  0.60822972    -0.07000
C827        C  0.81072770  0.50512200  0.65763877     0.13900
C828        C  0.79698267  0.46847416  0.67661446    -0.20500
C829        C  0.78787932  0.43315958  0.64773570    -0.07000
C830        C  0.79418231  0.43400895  0.59838275     0.13900
C831        C  0.78606482  0.39739625  0.56455071    -0.23800
H832        H  0.81214854  0.47185200  0.54173141     0.15100
H833        H  0.79273005  0.46812495  0.71443011     0.15200
C834        C  0.81837887  0.54272111  0.69042999    -0.23800
H835        H  0.79301676  0.40401868  0.52761530     0.05400
H836        H  0.76290368  0.39377012  0.56363793     0.08600
H837        H  0.79607231  0.36608287  0.57571562     0.08600
H838        H  0.80814592  0.57354055  0.67827310     0.08600
H839        H  0.84148385  0.54694911  0.69105859     0.08600
H840        H  0.81152075  0.53670657  0.72753309     0.05400
C841        C  0.81850649  0.63845479  0.44447401    -0.20400
C842        C  0.80552164  0.60869566  0.47580073    -0.07000
C843        C  0.77922960  0.59010287  0.46260364     0.13900
C844        C  0.76822558  0.59883008  0.41763953    -0.20500
C845        C  0.78211322  0.62602059  0.38555022    -0.07000
C846        C  0.80697348  0.64750841  0.39945610     0.13900
C847        C  0.82182445  0.67833738  0.36628916    -0.23800
H848        H  0.83823870  0.65353059  0.45439425     0.15100
H849        H  0.74870254  0.58339726  0.40681480     0.15200
C850        C  0.76210269  0.56118226  0.49498538    -0.23800
H851        H  0.84130080  0.69177748  0.38249052     0.05400
H852        H  0.80785237  0.70643141  0.35752532     0.08600
H853        H  0.82757527  0.66063088  0.33303181     0.08600
H854        H  0.75895137  0.57786738  0.52982470     0.08600
H855        H  0.77258304  0.52887860  0.49981759     0.08600
H856        H  0.74098590  0.55413331  0.48001753     0.05400
C857        C  0.64144805  0.44020720  0.79926357    -0.20400
C858        C  0.66900255  0.43078914  0.81404860    -0.07000
C859        C  0.68022448  0.45358249  0.85380798     0.13900
C860        C  0.66425530  0.48652440  0.87576463    -0.20500
C861        C  0.63723957  0.49760734  0.85967691    -0.07000
C862        C  0.62539501  0.47333242  0.82147403     0.13900
C863        C  0.59580106  0.48117632  0.80451652    -0.23800
H864        H  0.63258606  0.42212831  0.76948312     0.15100
H865        H  0.67340664  0.50449650  0.90535599     0.15200
C866        C  0.70872106  0.44303449  0.87442306    -0.23800
H867        H  0.58945109  0.45684076  0.77688672     0.05400
H868        H  0.59396963  0.51433451  0.78852692     0.08600
H869        H  0.58100726  0.47824463  0.83477287     0.08600
H870        H  0.72547576  0.45209744  0.84901452     0.08600
H871        H  0.71006424  0.40741263  0.88279139     0.08600
H872        H  0.71280755  0.46163161  0.90786469     0.05400
C873        C  0.64573678  0.57508486  0.07767748    -0.20400
C874        C  0.66550033  0.60928256  0.07856019    -0.07000
C875        C  0.66748579  0.63796800  0.03931761     0.13900
C876        C  0.65052409  0.63037060  0.99924365    -0.20500
C877        C  0.63226139  0.59430230  0.99725570    -0.07000
C878        C  0.62940205  0.56681186  0.03713160     0.13900
C879        C  0.60934103  0.52852188  0.03671743    -0.23800
H880        H  0.64398840  0.55349453  0.10805854     0.15100
H881        H  0.65266449  0.65116915  0.96829331     0.15200
C882        C  0.68728507  0.67659400  0.03952728    -0.23800
H883        H  0.60911084  0.51125520  0.07139425     0.05400
H884        H  0.61552155  0.50426508  0.00896391     0.08600
H885        H  0.58777045  0.54052329  0.02927582     0.08600
H886        H  0.70932687  0.66491006  0.04103912     0.08600
H887        H  0.68289463  0.69809532  0.07073547     0.08600
H888        H  0.68496434  0.69675836  0.00695718     0.05400
C889        C  0.91263777  0.69281221  0.60226396    -0.20400
C890        C  0.91377328  0.69448785  0.65222229    -0.07000
C891        C  0.89507292  0.66795832  0.67861733     0.13900
C892        C  0.87565606  0.64142207  0.65428402    -0.20500
C893        C  0.87417725  0.64051579  0.60437747    -0.07000
C894        C  0.89316361  0.66640519  0.57800466     0.13900
C895        C  0.89363564  0.66597800  0.52440050    -0.23800
H896        H  0.92708138  0.71258628  0.58178307     0.15100
H897        H  0.86109092  0.62176949  0.67460288     0.15200
C898        C  0.89465243  0.66803459  0.73224956    -0.23800
H899        H  0.91134238  0.68555265  0.51013069     0.05400
H900        H  0.87402770  0.68072063  0.51040087     0.08600
H901        H  0.89599472  0.63169078  0.51102579     0.08600
H902        H  0.89076627  0.70191564  0.74581771     0.08600
H903        H  0.91492325  0.65548416  0.74617132     0.08600
H904        H  0.87786049  0.64653188  0.74645697     0.05400
C905        C  0.53368238  0.67255114  0.84785651    -0.20400
C906        C  0.54305277  0.68941403  0.80431998    -0.07000
C907        C  0.56889603  0.67446726  0.78536132     0.13900
C908        C  0.58490708  0.64389139  0.81107824    -0.20500
C909        C  0.57604715  0.62870315  0.85555620    -0.07000
C910        C  0.54994815  0.64268949  0.87390768     0.13900
C911        C  0.53885453  0.62546923  0.92034577    -0.23800
H912        H  0.51378075  0.68367706  0.86221603     0.15100
H913        H  0.60481717  0.63255361  0.79694884     0.15200
C914        C  0.57945564  0.68971076  0.73775542    -0.23800
H915        H  0.51745848  0.63816611  0.92803375     0.05400
H916        H  0.55271047  0.63586578  0.95007026     0.08600
H917        H  0.53781010  0.58896376  0.91892906     0.08600
H918        H  0.58409198  0.72547122  0.73906914     0.08600
H919        H  0.56344764  0.68297313  0.70992907     0.08600
H920        H  0.59909436  0.67245536  0.72733274     0.05400
C921        C  0.89979203  0.95218299  0.66921555    -0.20400
C922        C  0.92383873  0.93420037  0.64794316    -0.07000
C923        C  0.93445877  0.95324326  0.60609246     0.13900
C924        C  0.92100691  0.99014060  0.58702294    -0.20500
C925        C  0.89685626  0.00868993  0.60803835    -0.07000
C926        C  0.88585223  0.98869283  0.64957470     0.13900
C927        C  0.85926015  0.00438944  0.67316054    -0.23800
H928        H  0.89174987  0.93725277  0.70131586     0.15100
H929        H  0.92983770  0.00482938  0.55544220     0.15200
C930        C  0.96065852  0.93600168  0.58226133    -0.23800
H931        H  0.85306687  0.98281733  0.70307588     0.05400
H932        H  0.84176211  0.00437581  0.64705775     0.08600
H933        H  0.86229469  0.03784185  0.68809001     0.08600
H934        H  0.95712609  0.90199332  0.56892641     0.08600
H935        H  0.97839582  0.93617869  0.60791060     0.08600
H936        H  0.96678855  0.95639128  0.55135887     0.05400
C937        C  0.52421075  0.96196605  0.83517118    -0.20400
C938        C  0.53968300  0.93213472  0.80711216    -0.07000
C939        C  0.56902774  0.93886442  0.80212102     0.13900
C940        C  0.58170581  0.97505928  0.82512262    -0.20500
C941        C  0.56606830  0.00418766  0.85351701    -0.07000
C942        C  0.53682021  0.99767660  0.85824572     0.13900
C943        C  0.51830127  0.02894862  0.88610889    -0.23800
H944        H  0.50181936  0.95743580  0.83940307     0.15100
H945        H  0.60408386  0.98033238  0.82152044     0.15200
C946        C  0.58724317  0.90873783  0.77255889    -0.23800
H947        H  0.49570768  0.02088358  0.88195860     0.05400
H948        H  0.52135777  0.06314087  0.87342468     0.08600
H949        H  0.52317547  0.02700326  0.92460763     0.08600
H950        H  0.57961077  0.90806878  0.73524440     0.08600
H951        H  0.58697533  0.87502221  0.78752297     0.08600
H952        H  0.60942847  0.91983364  0.77207356     0.05400
C953        C  0.89569645  0.92482176  0.15055526    -0.20400
C954        C  0.89008638  0.92793063  0.10178161    -0.07000
C955        C  0.89750847  0.96684180  0.07750444     0.13900
C956        C  0.91176116  0.00033880  0.10202803    -0.20500
C957        C  0.91906458  0.99632452  0.15027129    -0.07000
C958        C  0.91012475  0.95819592  0.17522541     0.13900
C959        C  0.91579277  0.95143730  0.22749981    -0.23800
H960        H  0.88971036  0.89516449  0.16917805     0.15100
H961        H  0.91774280  0.02960957  0.08276194     0.15200
C962        C  0.89009621  0.97394470  0.02595639    -0.23800
H963        H  0.90661529  0.92020642  0.24059009     0.05400
H964        H  0.90629550  0.97868330  0.24854950     0.08600
H965        H  0.93873292  0.94975680  0.23409406     0.08600
H966        H  0.86726547  0.96872959  0.02052849     0.08600
H967        H  0.90223490  0.95112617  0.00291141     0.08600
H968        H  0.89509683  0.00790539  0.01433197     0.05400
C969        C  0.89731442  0.84321159  0.88174137    -0.20400
C970        C  0.91884361  0.81164186  0.87926592    -0.07000
C971        C  0.92533361  0.78630718  0.91994705     0.13900
C972        C  0.91094028  0.79477209  0.96257087    -0.20500
C973        C  0.89053500  0.82790723  0.96525139    -0.07000
C974        C  0.88303691  0.85156094  0.92428568     0.13900
C975        C  0.86007932  0.88572414  0.92557438    -0.23800
H976        H  0.89209516  0.86219925  0.85043615     0.15100
H977        H  0.91644291  0.77682094  0.99445215     0.15200
C978        C  0.94840718  0.75229453  0.91957525    -0.23800
H979        H  0.85650143  0.90053885  0.89008068     0.05400
H980        H  0.86571251  0.91257536  0.95069295     0.08600
H981        H  0.84018281  0.87029672  0.93729429     0.08600
H982        H  0.96854479  0.76779751  0.90921572     0.08600
H983        H  0.94317608  0.72547752  0.89409082     0.08600
H984        H  0.95135148  0.73718994  0.95509484     0.05400
C985        C  0.79156200  0.74177429  0.09920957    -0.20400
C986        C  0.79134883  0.74028424  0.14909691    -0.07000
C987        C  0.80925152  0.76902674  0.17495645     0.13900
C988        C  0.82741699  0.79700005  0.15009168    -0.20500
C989        C  0.82839330  0.79714045  0.10014322    -0.07000
C990        C  0.80965588  0.76963303  0.07437094     0.13900
C991        C  0.80790213  0.76962212  0.02076169    -0.23800
H992        H  0.77750445  0.72057749  0.07921595     0.15100
H993        H  0.84152404  0.81816617  0.17000371     0.15200
C994        C  0.81019907  0.76971335  0.22856567    -0.23800
H995        H  0.79026254  0.74909595  0.00743785     0.05400
H996        H  0.82738447  0.75569813  0.00520568     0.08600
H997        H  0.80445825  0.80366993  0.00782831     0.08600
H998        H  0.81555272  0.73645901  0.24205048     0.08600
H999        H  0.78960072  0.78042136  0.24293507     0.08600
H1000       H  0.82622885  0.79302963  0.24238550     0.05400
C1001       C  0.58075207  0.95002365  0.32329349    -0.20400
C1002       C  0.56495251  0.92434280  0.35474069    -0.07000
C1003       C  0.53633701  0.93467227  0.36223595     0.13900
C1004       C  0.52445828  0.97018599  0.33825035    -0.20500
C1005       C  0.53999271  0.99598103  0.30648667    -0.07000
C1006       C  0.56876105  0.98598183  0.29928395     0.13900
C1007       C  0.58689500  0.01213294  0.26600458    -0.23800
H1008       H  0.60266880  0.94199460  0.31767691     0.15100
H1009       H  0.50253356  0.97769520  0.34450152     0.15200
C1010       C  0.51756107  0.90760979  0.39385095    -0.23800
H1011       H  0.60854013  0.99864914  0.26391573     0.05400
H1012       H  0.58847782  0.04670084  0.27877606     0.08600
H1013       H  0.57782885  0.01129635  0.22962174     0.08600
H1014       H  0.52416129  0.91108861  0.43152757     0.08600
H1015       H  0.51834450  0.87246721  0.38276677     0.08600
H1016       H  0.49531740  0.91842525  0.39187543     0.05400
C1017       C  0.55617414  0.78923704  0.49781054    -0.20400
C1018       C  0.57160794  0.82808639  0.49209727    -0.07000
C1019       C  0.57438076  0.85785405  0.53061165     0.13900
C1020       C  0.56075755  0.84882145  0.57352509    -0.20500
C1021       C  0.54365235  0.81164741  0.57815317    -0.07000
C1022       C  0.54174108  0.78094526  0.54029050     0.13900
C1023       C  0.52452999  0.73959997  0.54455846    -0.23800
H1024       H  0.55415108  0.76655522  0.46806981     0.15100
H1025       H  0.56219470  0.87217181  0.60276658     0.15200
C1026       C  0.59148387  0.89934323  0.52645686    -0.23800
H1027       H  0.52638301  0.71843009  0.51234999     0.05400
H1028       H  0.00352120  0.74763299  0.55028865     0.08600
H1029       H  0.53186185  0.72030069  0.57559181     0.08600
H1030       H  0.58204335  0.92155586  0.49966741     0.08600
H1031       H  0.61325654  0.89090931  0.51575368     0.08600
H1032       H  0.59245659  0.91771057  0.56070540     0.05400
C1033       C  0.66555196  0.77659245  0.29759401    -0.20400
C1034       C  0.66058937  0.73117310  0.30098164    -0.07000
C1035       C  0.63739935  0.71619227  0.32784951     0.13900
C1036       C  0.62015599  0.74699707  0.35093752    -0.20500
C1037       C  0.62509124  0.79233093  0.34747555    -0.07000
C1038       C  0.64795922  0.80742245  0.32010557     0.13900
C1039       C  0.65462140  0.85573625  0.31589904    -0.23800
H1040       H  0.68331913  0.78803484  0.27713733     0.15100
H1041       H  0.60258053  0.73558451  0.37190076     0.15200
C1042       C  0.63116755  0.66787885  0.33408966    -0.23800
H1043       H  0.67424393  0.86128297  0.29559350     0.05400
H1044       H  0.65736119  0.87048717  0.35183695     0.08600
H1045       H  0.63743585  0.87291425  0.29686772     0.08600
H1046       H  0.64978109  0.65086570  0.34912858     0.08600
H1047       H  0.62542627  0.65276179  0.29939825     0.08600
H1048       H  0.61330568  0.66248692  0.35865975     0.05400
loop_ 
_geom_bond_atom_site_label_1 
_geom_bond_atom_site_label_2 
_geom_bond_distance 
_geom_bond_site_symmetry_2 
_ccdc_geom_bond_type 
C1            N2   1.360       .  A
C1            N6   1.362       .  A
C1          C513   1.479       .  S
N2            C3   1.358       .  A
C3            N4   1.353       .  A
C3          C478   1.478       .  S
N4            C5   1.352       .  A
C5            N6   1.357       .  A
C5          C494   1.472       .  S
C7            N8   1.358       .  A
C7           N12   1.364       .  A
C7          C465   1.489       .  S
N8            C9   1.352       .  A
C9           N10   1.352       .  A
C9          C449   1.465   1_554  S
N10          C11   1.355       .  A
C11          N12   1.362       .  A
C11         C430   1.484       .  S
Zn13         O17   1.944       .  S
Zn13         O18   2.001       .  S
Zn13         O22   2.012       .  S
Zn13         O29   1.992       .  S
Zn14        O541   1.963   1_455  S
Zn14         O19   2.023       .  S
Zn14         O21   2.018       .  S
Zn14         O25   2.017       .  S
Zn15         O17   1.943       .  S
Zn15         O20   2.008       .  S
Zn15         O23   1.992       .  S
Zn15         O26   1.993       .  S
Zn16         O17   1.959       .  S
Zn16         O24   2.021       .  S
Zn16         O27   2.011       .  S
Zn16         O28   2.018       .  S
O17        Zn538   1.964       .  S
O18         C554   1.271       .  A
O19          C31   1.272       .  A
O20          C32   1.271       .  A
O21          C30   1.273       .  A
O22          C32   1.272       .  A
O23         C555   1.273       .  A
O24          C33   1.272       .  A
O25          C34   1.274       .  A
O26          C33   1.271       .  A
O27         C558   1.274       .  A
O28          C35   1.273       .  A
O29          C35   1.272       .  A
C30         C497   1.472       .  S
C30         O542   1.272   1_455  A
C31         C414   1.493       .  S
C31         O547   1.273   1_455  A
C32         C398   1.477       .  S
C33         C446   1.478       .  S
C34         C382   1.480       .  S
C34         O551   1.274   1_455  A
C35         C366   1.483       .  S
C36          N37   1.360       .  A
C36          N41   1.360       .  A
C36         C385   1.473       .  S
N37          C38   1.358       .  A
C38          N39   1.355       .  A
C38         C337   1.482       .  S
N39          C40   1.351       .  A
C40          N41   1.356       .  A
C40         C353   1.468       .  S
C42          N43   1.363       .  A
C42          N47   1.360       .  A
C42         C369   1.480       .  S
N43          C44   1.360       .  A
C44          N45   1.352       .  A
C44         C318   1.490       .  S
N45          C46   1.350       .  A
C46          N47   1.354       .  A
C46         C302   1.473       .  S
Zn48         O52   1.956       .  S
Zn48         O53   1.998       .  S
Zn48         O57   2.013       .  S
Zn48         O64   2.002       .  S
Zn49         O52   1.971       .  S
Zn49         O54   2.035       .  S
Zn49         O56   2.027       .  S
Zn49         O60   2.018       .  S
Zn50         O52   1.934       .  S
Zn50         O55   1.987       .  S
Zn50         O58   1.971       .  S
Zn50         O61   1.997       .  S
Zn51         O52   1.946       .  S
Zn51         O59   2.032       .  S
Zn51         O62   2.007       .  S
Zn51         O63   2.019       .  S
O53          C65   1.271       .  A
O54          C66   1.273       .  A
O55          C67   1.268       .  A
O56          C65   1.275       .  A
O57          C67   1.272       .  A
O58          C66   1.269       .  A
O59          C68   1.276       .  A
O60          C69   1.274       .  A
O61          C68   1.269       .  A
O62          C69   1.275       .  A
O63          C70   1.274       .  A
O64          C70   1.272       .  A
C65         C510   1.481       .  S
C66         C321   1.469       .  S
C67         C273   1.479       .  S
C68         C289   1.496       .  S
C69         C462   1.489       .  S
C70         C350   1.474       .  S
C71          N72   1.359       .  A
C71          N76   1.359       .  A
C71         C254   1.470       .  S
N72          C73   1.356       .  A
C73          N74   1.353       .  A
C73         C241   1.475       .  S
N74          C75   1.356       .  A
C75          N76   1.358       .  A
C75         C270   1.486       .  S
C77          N78   1.361       .  A
C77          N82   1.359       .  A
C77         C222   1.488       .  S
N78          C79   1.361       .  A
C79          N80   1.357       .  A
C79         C286   1.486       .  S
N80          C81   1.355       .  A
C81          N82   1.355       .  A
C81         C209   1.472   1_554  S
Zn83         O87   1.947       .  S
Zn83         O88   1.993       .  S
Zn83         O92   2.015       .  S
Zn83         O99   2.006       .  S
Zn84         O87   1.969       .  S
Zn84         O89   2.039       .  S
Zn84         O91   2.037       .  S
Zn84         O95   2.041       .  S
Zn85         O87   1.943       .  S
Zn85         O90   1.996       .  S
Zn85         O93   1.995       .  S
Zn85         O96   1.993       .  S
Zn86         O87   1.957       .  S
Zn86         O94   2.014       .  S
Zn86         O97   1.992       .  S
Zn86         O98   2.016       .  S
O88         C100   1.271       .  A
O89         C101   1.275       .  A
O90         C102   1.271       .  A
O91         C100   1.277       .  A
O92         C102   1.271       .  A
O93         C101   1.271       .  A
O94         C103   1.272       .  A
O95         C104   1.277       .  A
O96         C103   1.270       .  A
O97         C104   1.271       .  A
O98         C105   1.272       .  A
O99         C105   1.272       .  A
C100        C174   1.479       .  S
C101        C206   1.485       .  S
C102        C305   1.491       .  S
C103        C334   1.484       .  S
C104        C193   1.486       .  S
C105        C238   1.468       .  S
C106        N107   1.362       .  A
C106        N111   1.360       .  A
C106        C190   1.474       .  S
N107        C108   1.361       .  A
C108        N109   1.353       .  A
C108        C417   1.478       .  S
N109        C110   1.351       .  A
C110        N111   1.355       .  A
C110        C158   1.466       .  S
C112        N113   1.361       .  A
C112        N117   1.362       .  A
C112        C177   1.479       .  S
N113        C114   1.357       .  A
C114        N115   1.355       .  A
C114        C142   1.480       .  S
N115        C116   1.357       .  A
C116        N117   1.359       .  A
C116        C401   1.496       .  S
Zn118       O122   1.946       .  S
Zn118       O123   2.025       .  S
Zn118       O127   2.013       .  S
Zn118       O134   1.993       .  S
Zn119       O122   1.928       .  S
Zn119       O124   1.975       .  S
Zn119       O126   1.990       .  S
Zn119       O130   1.969       .  S
Zn120       O646   1.963   1_455  S
Zn120       O125   2.009       .  S
Zn120       O128   2.027       .  S
Zn120       O131   1.993       .  S
Zn121       O122   1.976       .  S
Zn121       O129   2.035       .  S
Zn121       O132   2.059       .  S
Zn121       O133   2.040       .  S
O122       Zn644   1.963       .  S
O123        C135   1.274       .  A
O124        C660   1.270       .  A
O125        C137   1.272       .  A
O126        C135   1.267       .  A
O127        C661   1.273       .  A
O128        C136   1.271       .  A
O129        C662   1.276       .  A
O130        C139   1.266       .  A
O131        C138   1.273       .  A
O132        C139   1.278       .  A
O133        C140   1.276       .  A
O134        C140   1.272       .  A
C135        C433   1.494   1_545  S
C136        C481   1.489   1_545  S
C136        O648   1.270   1_455  A
C137        C161   1.474       .  S
C137        O651   1.273   1_455  A
C138        C257   1.482       .  S
C138        O653   1.276       .  A
C139        C145   1.495       .  S
C140        C225   1.483       .  S
C141        C142   1.399       .  A
C141        C146   1.400       .  A
C141        H148   1.085       .  S
C142        C143   1.413       .  A
C143        C144   1.409       .  A
C143        C150   1.506       .  S
C144        C145   1.409       .  A
C144        H149   1.083       .  S
C145        C146   1.426       .  A
C146        C147   1.512       .  S
C147        H151   1.111       .  S
C147        H152   1.110       .  S
C147        H153   1.110       .  S
C150        H154   1.110       .  S
C150        H155   1.110       .  S
C150        H156   1.111       .  S
C157        C158   1.401       .  A
C157        C162   1.404   1_556  A
C157        H164   1.084       .  S
C158        C159   1.410   1_556  A
C159        C160   1.400       .  A
C159        C166   1.507       .  S
C160        C161   1.403       .  A
C160        H165   1.084       .  S
C161        C162   1.415       .  A
C162        C163   1.507       .  S
C163        H167   1.111       .  S
C163        H168   1.110       .  S
C163        H169   1.109   1_455  S
C166        H170   1.110       .  S
C166        H171   1.110       .  S
C166        H172   1.111       .  S
C173        C174   1.403       .  A
C173        C178   1.404       .  A
C173        H180   1.084       .  S
C174        C175   1.416       .  A
C175        C176   1.403       .  A
C175        C182   1.509       .  S
C176        C177   1.403       .  A
C176        H181   1.084       .  S
C177        C178   1.414       .  A
C178        C179   1.507       .  S
C179        H183   1.111       .  S
C179        H184   1.110       .  S
C179        H185   1.106       .  S
C182        H186   1.109       .  S
C182        H187   1.110       .  S
C182        H188   1.111       .  S
C189        C190   1.398       .  A
C189        C194   1.401       .  A
C189        H196   1.085       .  S
C190        C191   1.411       .  A
C191        C192   1.407       .  A
C191        C198   1.506       .  S
C192        C193   1.407       .  A
C192        H197   1.084       .  S
C193        C194   1.421       .  A
C194        C195   1.510       .  S
C195        H199   1.111       .  S
C195        H200   1.110       .  S
C195        H201   1.110       .  S
C198        H202   1.110       .  S
C198        H203   1.111       .  S
C198        H204   1.111       .  S
C205        C206   1.407       .  A
C205        C210   1.402       .  A
C205        H212   1.084       .  S
C206        C207   1.417       .  A
C207        C208   1.406       .  A
C207        C214   1.507       .  S
C208        C209   1.401       .  A
C208        H213   1.084       .  S
C209        C210   1.409       .  A
C210        C211   1.507       .  S
C211        H215   1.111       .  S
C211        H216   1.110       .  S
C211        H217   1.107       .  S
C214        H218   1.110       .  S
C214        H219   1.111       .  S
C214        H220   1.111       .  S
C221        C222   1.408       .  A
C221        C226   1.407       .  A
C221        H228   1.084       .  S
C222        C223   1.418       .  A
C223        C224   1.401       .  A
C223        C230   1.510       .  S
C224        C225   1.404       .  A
C224        H229   1.084       .  S
C225        C226   1.414       .  A
C226        C227   1.507       .  S
C227        H231   1.111       .  S
C227        H232   1.111       .  S
C227        H233   1.110       .  S
C230        H234   1.109       .  S
C230        H235   1.110       .  S
C230        H236   1.111       .  S
C237        C238   1.400       .  A
C237        C242   1.402       .  A
C237        H244   1.084       .  S
C238        C239   1.410       .  A
C239        C240   1.404       .  A
C239        C246   1.507       .  S
C240        C241   1.404       .  A
C240        H245   1.084       .  S
C241        C242   1.416       .  A
C242        C243   1.509       .  S
C243        H247   1.111       .  S
C243        H248   1.110       .  S
C243        H249   1.109       .  S
C246        H250   1.110       .  S
C246        H251   1.110       .  S
C246        H252   1.111       .  S
C253        C254   1.402       .  A
C253        C258   1.405       .  A
C253        H260   1.084       .  S
C254        C255   1.410       .  A
C255        C256   1.400       .  A
C255        C262   1.508       .  S
C256        C257   1.407       .  A
C256        H261   1.084       .  S
C257        C258   1.417       .  A
C258        C783   1.508       .  S
C259        C782   1.508       .  S
C259        H263   1.111       .  S
C259        H264   1.109       .  S
C259        H265   1.111       .  S
C262        H266   1.109       .  S
C262        H267   1.111       .  S
C262        H268   1.111       .  S
C269        C270   1.406       .  A
C269        C274   1.398       .  A
C269        H276   1.084       .  S
C270        C271   1.418       .  A
C271        C272   1.406       .  A
C271        C278   1.508       .  S
C272        C273   1.404       .  A
C272        H277   1.084       .  S
C273        C274   1.415       .  A
C274        C275   1.511       .  S
C275        H279   1.111       .  S
C275        H280   1.110       .  S
C275        H281   1.109       .  S
C278        H282   1.110       .  S
C278        H283   1.109       .  S
C278        H284   1.111       .  S
C285        C286   1.403       .  A
C285        C290   1.405       .  A
C285        H292   1.084       .  S
C286        C287   1.416       .  A
C287        C288   1.403       .  A
C287        C294   1.507       .  S
C288        C289   1.406       .  A
C288        H293   1.084       .  S
C289        C290   1.424       .  A
C290        C291   1.510       .  S
C291        H295   1.111       .  S
C291        H296   1.110       .  S
C291        H297   1.110       .  S
C294        H298   1.108       .  S
C294        H299   1.110       .  S
C294        H300   1.111       .  S
C301        C302   1.401       .  A
C301        C306   1.403       .  A
C301        H308   1.085       .  S
C302        C303   1.410       .  A
C303        C304   1.401       .  A
C303        C310   1.508       .  S
C304        C305   1.410       .  A
C304        H309   1.083       .  S
C305        C306   1.421       .  A
C306        C307   1.509       .  S
C307        H311   1.111       .  S
C307        H312   1.110       .  S
C307        H313   1.110       .  S
C310        H314   1.111       .  S
C310        H315   1.109       .  S
C310        H316   1.111       .  S
C317        C318   1.412       .  A
C317        C322   1.408       .  A
C317        H324   1.083       .  S
C318        C319   1.424       .  A
C319        C320   1.395       .  A
C319        C326   1.512       .  S
C320        C321   1.397       .  A
C320        H325   1.085       .  S
C321        C322   1.408       .  A
C322        C323   1.505       .  S
C323        H327   1.111       .  S
C323        H328   1.110       .  S
C323        H329   1.110       .  S
C326        H330   1.110       .  S
C326        H331   1.109       .  S
C326        H332   1.111       .  S
C333        C334   1.407       .  A
C333        C338   1.406       .  A
C333        H340   1.084       .  S
C334        C335   1.417       .  A
C335        C336   1.397       .  A
C335        C342   1.511       .  S
C336        C337   1.404       .  A
C336        H341   1.084       .  S
C337        C338   1.415       .  A
C338        C339   1.507       .  S
C339        H343   1.111       .  S
C339        H344   1.109       .  S
C339        H345   1.111       .  S
C342        H346   1.109       .  S
C342        H347   1.111       .  S
C342        H348   1.111       .  S
C349        C350   1.404       .  A
C349        C354   1.401       .  A
C349        H356   1.084       .  S
C350        C351   1.414       .  A
C351        C352   1.404   1_554  A
C351        C358   1.507       .  S
C352        C353   1.402       .  A
C352        H357   1.084       .  S
C353        C354   1.410   1_556  A
C354        C355   1.507       .  S
C355        H359   1.111       .  S
C355        H360   1.109       .  S
C355        H361   1.110       .  S
C358        H362   1.109       .  S
C358        H363   1.110       .  S
C358        H364   1.111       .  S
C365        C366   1.406       .  A
C365        C370   1.401       .  A
C365        H372   1.084       .  S
C366        C367   1.416       .  A
C367        C368   1.402       .  A
C367        C374   1.509       .  S
C368        C369   1.405       .  A
C368        H373   1.083       .  S
C369        C370   1.414       .  A
C370        C371   1.508       .  S
C371        H375   1.111       .  S
C371        H376   1.109       .  S
C371        H377   1.110       .  S
C374        H378   1.110       .  S
C374        H379   1.110       .  S
C374        H380   1.111       .  S
C381        C382   1.405       .  A
C381        C386   1.401       .  A
C381        H388   1.084       .  S
C382        C383   1.416       .  A
C383        C384   1.404       .  A
C383        C390   1.508       .  S
C384        C385   1.402       .  A
C384        H389   1.084       .  S
C385        C386   1.411       .  A
C386        C387   1.508       .  S
C387        H391   1.111       .  S
C387        H392   1.109       .  S
C387        H393   1.110       .  S
C390        H394   1.109       .  S
C390        H395   1.110       .  S
C390        H396   1.111       .  S
C397        C398   1.402       .  A
C397        C402   1.408       .  A
C397        H404   1.084       .  S
C398        C399   1.410       .  A
C399        C400   1.400       .  A
C399        C406   1.510       .  S
C400        C401   1.410   1_565  A
C400        H405   1.083   1_565  S
C401        C402   1.422   1_545  A
C402        C403   1.507   1_565  S
C403        H407   1.111   1_545  S
C403        H408   1.110       .  S
C403        H409   1.106       .  S
C406        H410   1.110       .  S
C406        H411   1.111       .  S
C406        H412   1.111       .  S
C413        C414   1.406       .  A
C413        C418   1.397       .  A
C413        H420   1.083       .  S
C414        C415   1.422       .  A
C415        C416   1.408       .  A
C415        C422   1.507       .  S
C416        C417   1.402   1_565  A
C416        H421   1.084       .  S
C417        C418   1.415   1_545  A
C418        C419   1.511   1_565  S
C419        H423   1.111   1_455  S
C419        H424   1.110       .  S
C419        H425   1.109       .  S
C422        H426   1.110       .  S
C422        H427   1.110       .  S
C422        H428   1.111       .  S
C429        C430   1.402       .  A
C429        C434   1.406       .  A
C429        H436   1.084       .  S
C430        C431   1.416       .  A
C431        C432   1.401   1_565  A
C431        C438   1.508       .  S
C432        C433   1.406   1_545  A
C432        H437   1.083       .  S
C433        C434   1.424       .  A
C434        C435   1.510       .  S
C435        H439   1.111       .  S
C435        H440   1.110       .  S
C435        H441   1.110       .  S
C438        H442   1.110       .  S
C438        H443   1.108       .  S
C438        H444   1.111   1_565  S
C445        C446   1.405       .  A
C445        C450   1.399       .  A
C445        H452   1.084       .  S
C446        C447   1.417       .  A
C447        C448   1.405       .  A
C447        C454   1.507       .  S
C448        C449   1.400       .  A
C448        H453   1.084       .  S
C449        C450   1.408       .  A
C450        C451   1.507       .  S
C451        H455   1.111       .  S
C451        H456   1.107       .  S
C451        H457   1.110       .  S
C454        H458   1.110       .  S
C454        H459   1.110       .  S
C454        H460   1.111       .  S
C461        C462   1.405       .  A
C461        C466   1.401       .  A
C461        H468   1.084       .  S
C462        C463   1.419       .  A
C463        C464   1.406       .  A
C463        C470   1.509       .  S
C464        C465   1.406       .  A
C464        H469   1.084       .  S
C465        C466   1.420       .  A
C466        C467   1.510       .  S
C467        H471   1.111       .  S
C467        H472   1.109       .  S
C467        H473   1.110       .  S
C470        H474   1.110       .  S
C470        H475   1.110       .  S
C470        H476   1.111       .  S
C477        C478   1.404       .  A
C477        C482   1.408       .  A
C477        H484   1.084       .  S
C478        C479   1.414       .  A
C479        C480   1.395       .  A
C479        C486   1.511       .  S
C480        C481   1.406       .  A
C480        H485   1.084       .  S
C481        C482   1.420       .  A
C482        C483   1.507   1_565  S
C483        H487   1.111       .  S
C483        H488   1.110       .  S
C483        H489   1.110       .  S
C486        H490   1.109       .  S
C486        H491   1.110       .  S
C486        H492   1.111   1_455  S
C493        C494   1.403       .  A
C493        C498   1.405       .  A
C493        H500   1.084       .  S
C494        C495   1.413       .  A
C495        C496   1.401       .  A
C495        C502   1.508       .  S
C496        C497   1.401       .  A
C496        H501   1.084       .  S
C497        C498   1.413       .  A
C498        C499   1.507       .  S
C499        H503   1.111       .  S
C499        H505   1.110       .  S
C499       H1028   1.109       .  S
C502        H506   1.109       .  S
C502        H507   1.110       .  S
C502        H508   1.111       .  S
H504       C1023   1.109       .  S
C509        C510   1.404       .  A
C509        C514   1.405       .  A
C509        H516   1.084       .  S
C510        C511   1.417       .  A
C511        C512   1.401       .  A
C511        C518   1.509       .  S
C512        C513   1.402       .  A
C512        H517   1.084       .  S
C513        C514   1.416       .  A
C514        C515   1.508       .  S
C515        H519   1.111       .  S
C515        H520   1.110       .  S
C515        H521   1.109       .  S
C518        H522   1.110       .  S
C518        H523   1.109       .  S
C518        H524   1.111       .  S
C525        N526   1.360       .  A
C525        N530   1.362       .  A
C525       C1037   1.477       .  S
N526        C527   1.358       .  A
C527        N528   1.353       .  A
C527       C1002   1.478       .  S
N528        C529   1.351       .  A
C529        N530   1.356       .  A
C529       C1018   1.471       .  S
C531        N532   1.358       .  A
C531        N536   1.363       .  A
C531        C989   1.488       .  S
N532        C533   1.352       .  A
C533        N534   1.352       .  A
C533        C973   1.464   1_554  S
N534        C535   1.354       .  A
C535        N536   1.361       .  A
C535        C954   1.481       .  S
Zn537       O541   1.944       .  S
Zn537       O542   2.005       .  S
Zn537       O546   2.012       .  S
Zn537       O553   1.994       .  S
Zn538       O543   2.025       .  S
Zn538       O545   2.019       .  S
Zn538       O549   2.018       .  S
Zn539       O541   1.944       .  S
Zn539       O544   2.007       .  S
Zn539       O547   1.994       .  S
Zn539       O550   1.994       .  S
Zn540       O541   1.959       .  S
Zn540       O548   2.021       .  S
Zn540       O551   2.010       .  S
Zn540       O552   2.020       .  S
O543        C555   1.273       .  A
O544        C556   1.271       .  A
O545        C554   1.273       .  A
O546        C556   1.272       .  A
O548        C557   1.272       .  A
O549        C558   1.274       .  A
O550        C557   1.271       .  A
O552        C559   1.273       .  A
O553        C559   1.272       .  A
C554       C1021   1.472       .  S
C555        C938   1.492       .  S
C556        C922   1.477       .  S
C557        C970   1.477       .  S
C558        C906   1.480       .  S
C559        C890   1.486       .  S
C560        N561   1.360       .  A
C560        N565   1.360       .  A
C560        C909   1.474       .  S
N561        C562   1.358       .  A
C562        N563   1.355       .  A
C562        C861   1.485       .  S
N563        C564   1.351       .  A
C564        N565   1.356       .  A
C564        C877   1.468       .  S
C566        N567   1.362       .  A
C566        N571   1.360       .  A
C566        C893   1.483       .  S
N567        C568   1.360       .  A
C568        N569   1.352       .  A
C568        C842   1.489       .  S
N569        C570   1.351       .  A
C570        N571   1.355       .  A
C570        C826   1.480       .  S
Zn572       O576   1.955       .  S
Zn572       O577   1.996       .  S
Zn572       O581   2.011       .  S
Zn572       O588   2.002       .  S
Zn573       O576   1.970       .  S
Zn573       O578   2.032       .  S
Zn573       O580   2.024       .  S
Zn573       O584   2.017       .  S
Zn574       O576   1.937       .  S
Zn574       O579   1.990       .  S
Zn574       O582   1.977       .  S
Zn574       O585   2.002       .  S
Zn575       O576   1.944       .  S
Zn575       O583   2.029       .  S
Zn575       O586   2.007       .  S
Zn575       O587   2.021       .  S
O577        C589   1.271       .  A
O578        C590   1.273       .  A
O579        C591   1.269       .  A
O580        C589   1.275       .  A
O581        C591   1.272       .  A
O582        C590   1.270       .  A
O583        C592   1.276       .  A
O584        C593   1.273       .  A
O585        C592   1.269       .  A
O586        C593   1.275       .  A
O587        C594   1.274       .  A
O588        C594   1.272       .  A
C589       C1034   1.481       .  S
C590        C845   1.469       .  S
C591        C797   1.481       .  S
C592        C813   1.497       .  S
C593        C986   1.487       .  S
C594        C874   1.475       .  S
C595        N596   1.360       .  A
C595        N600   1.359       .  A
C595        C778   1.471       .  S
N596        C597   1.357       .  A
C597        N598   1.353       .  A
C597        C765   1.475       .  S
N598        C599   1.356       .  A
C599        N600   1.358       .  A
C599        C794   1.485       .  S
C601        N602   1.362       .  A
C601        N606   1.360       .  A
C601        C746   1.488       .  S
N602        C603   1.362       .  A
C603        N604   1.357       .  A
C603        C810   1.490       .  S
N604        C605   1.355       .  A
C605        N606   1.355       .  A
C605        C733   1.473   1_554  S
Zn607       O611   1.947       .  S
Zn607       O612   1.993       .  S
Zn607       O616   2.014       .  S
Zn607       O623   2.008       .  S
Zn608       O611   1.969       .  S
Zn608       O613   2.037       .  S
Zn608       O615   2.038       .  S
Zn608       O619   2.042       .  S
Zn609       O611   1.945       .  S
Zn609       O614   2.001       .  S
Zn609       O617   1.999       .  S
Zn609       O620   1.996       .  S
Zn610       O611   1.957       .  S
Zn610       O618   2.013       .  S
Zn610       O621   1.992       .  S
Zn610       O622   2.015       .  S
O612        C624   1.271       .  A
O613        C625   1.275       .  A
O614        C626   1.272       .  A
O615        C624   1.277       .  A
O616        C626   1.271       .  A
O617        C625   1.272       .  A
O618        C627   1.272       .  A
O619        C628   1.277       .  A
O620        C627   1.270       .  A
O621        C628   1.271       .  A
O622        C629   1.272       .  A
O623        C629   1.272       .  A
C624        C698   1.479       .  S
C625        C730   1.486       .  S
C626        C829   1.493       .  S
C627        C858   1.482       .  S
C628        C717   1.487       .  S
C629        C762   1.469       .  S
C630        N631   1.362       .  A
C630        N635   1.360       .  A
C630        C714   1.474       .  S
N631        C632   1.361       .  A
C632        N633   1.353       .  A
C632        C941   1.479       .  S
N633        C634   1.350       .  A
C634        N635   1.355       .  A
C634        C682   1.467       .  S
C636        N637   1.361       .  A
C636        N641   1.361       .  A
C636        C701   1.478       .  S
N637        C638   1.357       .  A
C638        N639   1.355       .  A
C638        C666   1.480       .  S
N639        C640   1.357       .  A
C640        N641   1.359       .  A
C640        C925   1.496       .  S
Zn642       O646   1.947       .  S
Zn642       O647   2.025       .  S
Zn642       O651   2.013       .  S
Zn642       O658   1.995       .  S
Zn643       O646   1.928       .  S
Zn643       O648   1.977       .  S
Zn643       O650   1.988       .  S
Zn643       O654   1.972       .  S
Zn644       O649   2.009       .  S
Zn644       O652   2.027       .  S
Zn644       O655   1.996       .  S
Zn645       O646   1.975       .  S
Zn645       O653   2.034   1_655  S
Zn645       O656   2.059       .  S
Zn645       O657   2.040       .  S
O647        C659   1.275       .  A
O649        C661   1.272       .  A
O650        C659   1.267       .  A
O652        C660   1.271       .  A
O654        C663   1.266       .  A
O655        C662   1.273       .  A
O656        C663   1.278       .  A
O657        C664   1.276       .  A
O658        C664   1.273       .  A
C659        C957   1.494   1_545  S
C660       C1005   1.488   1_545  S
C661        C685   1.474       .  S
C662        C781   1.484       .  S
C663        C669   1.495       .  S
C664        C749   1.483       .  S
C665        C666   1.399       .  A
C665        C670   1.401       .  A
C665        H672   1.085       .  S
C666        C667   1.413       .  A
C667        C668   1.408       .  A
C667        C674   1.506       .  S
C668        C669   1.408       .  A
C668        H673   1.083       .  S
C669        C670   1.426       .  A
C670        C671   1.512       .  S
C671        H675   1.111       .  S
C671        H676   1.110       .  S
C671        H677   1.110       .  S
C674        H678   1.110       .  S
C674        H679   1.110       .  S
C674        H680   1.111       .  S
C681        C682   1.401       .  A
C681        C686   1.404   1_556  A
C681        H688   1.084       .  S
C682        C683   1.410   1_556  A
C683        C684   1.401       .  A
C683        C690   1.507       .  S
C684        C685   1.403       .  A
C684        H689   1.084       .  S
C685        C686   1.415       .  A
C686        C687   1.507       .  S
C687        H691   1.111       .  S
C687        H692   1.110       .  S
C687        H693   1.109       .  S
C690        H694   1.110       .  S
C690        H695   1.110       .  S
C690        H696   1.111       .  S
C697        C698   1.403       .  A
C697        C702   1.405       .  A
C697        H704   1.084       .  S
C698        C699   1.416       .  A
C699        C700   1.403       .  A
C699        C706   1.509       .  S
C700        C701   1.403       .  A
C700        H705   1.084       .  S
C701        C702   1.414       .  A
C702        C703   1.507       .  S
C703        H707   1.111       .  S
C703        H708   1.110       .  S
C703        H709   1.106       .  S
C706        H710   1.109       .  S
C706        H711   1.110       .  S
C706        H712   1.111       .  S
C713        C714   1.398       .  A
C713        C718   1.401       .  A
C713        H720   1.085       .  S
C714        C715   1.411       .  A
C715        C716   1.407       .  A
C715        C722   1.506       .  S
C716        C717   1.407       .  A
C716        H721   1.084       .  S
C717        C718   1.422       .  A
C718        C719   1.510       .  S
C719        H723   1.111       .  S
C719        H724   1.110       .  S
C719        H725   1.110       .  S
C722        H726   1.110       .  S
C722        H727   1.111       .  S
C722        H728   1.111       .  S
C729        C730   1.407       .  A
C729        C734   1.403       .  A
C729        H736   1.084       .  S
C730        C731   1.418       .  A
C731        C732   1.406       .  A
C731        C738   1.507       .  S
C732        C733   1.401       .  A
C732        H737   1.084       .  S
C733        C734   1.409       .  A
C734        C735   1.506       .  S
C735        H739   1.111       .  S
C735        H740   1.110       .  S
C735        H741   1.107       .  S
C738        H742   1.110       .  S
C738        H743   1.111       .  S
C738        H744   1.111       .  S
C745        C746   1.408       .  A
C745        C750   1.408       .  A
C745        H752   1.084       .  S
C746        C747   1.418       .  A
C747        C748   1.401       .  A
C747        C754   1.509       .  S
C748        C749   1.403       .  A
C748        H753   1.084       .  S
C749        C750   1.414       .  A
C750        C751   1.507       .  S
C751        H755   1.111       .  S
C751        H756   1.111       .  S
C751        H757   1.110       .  S
C754        H758   1.109       .  S
C754        H759   1.110       .  S
C754        H760   1.111       .  S
C761        C762   1.399       .  A
C761        C766   1.402       .  A
C761        H768   1.084       .  S
C762        C763   1.410       .  A
C763        C764   1.404       .  A
C763        C770   1.506       .  S
C764        C765   1.404       .  A
C764        H769   1.084       .  S
C765        C766   1.416       .  A
C766        C767   1.509       .  S
C767        H771   1.111       .  S
C767        H772   1.110       .  S
C767        H773   1.109       .  S
C770        H774   1.110       .  S
C770        H775   1.110       .  S
C770        H776   1.111       .  S
C777        C778   1.402       .  A
C777        C782   1.406       .  A
C777        H784   1.084       .  S
C778        C779   1.409       .  A
C779        C780   1.401       .  A
C779        C786   1.508       .  S
C780        C781   1.407       .  A
C780        H785   1.084       .  S
C781        C782   1.418       .  A
C783        H787   1.111       .  S
C783        H788   1.109   1_455  S
C783        H789   1.111       .  S
C786        H790   1.109       .  S
C786        H791   1.111       .  S
C786        H792   1.111       .  S
C793        C794   1.406       .  A
C793        C798   1.399       .  A
C793        H800   1.084       .  S
C794        C795   1.417       .  A
C795        C796   1.405       .  A
C795        C802   1.508       .  S
C796        C797   1.405       .  A
C796        H801   1.084       .  S
C797        C798   1.416       .  A
C798        C799   1.511       .  S
C799        H803   1.111       .  S
C799        H804   1.110       .  S
C799        H805   1.109       .  S
C802        H806   1.110       .  S
C802        H807   1.109       .  S
C802        H808   1.111       .  S
C809        C810   1.404       .  A
C809        C814   1.406       .  A
C809        H816   1.084       .  S
C810        C811   1.417       .  A
C811        C812   1.403       .  A
C811        C818   1.508       .  S
C812        C813   1.406       .  A
C812        H817   1.083       .  S
C813        C814   1.424       .  A
C814        C815   1.509       .  S
C815        H819   1.111       .  S
C815        H820   1.110       .  S
C815        H821   1.110       .  S
C818        H822   1.109       .  S
C818        H823   1.110       .  S
C818        H824   1.111       .  S
C825        C826   1.403       .  A
C825        C830   1.403       .  A
C825        H832   1.084       .  S
C826        C827   1.412       .  A
C827        C828   1.402       .  A
C827        C834   1.508       .  S
C828        C829   1.410       .  A
C828        H833   1.083       .  S
C829        C830   1.421       .  A
C830        C831   1.509       .  S
C831        H835   1.111       .  S
C831        H836   1.110       .  S
C831        H837   1.110       .  S
C834        H838   1.110       .  S
C834        H839   1.109       .  S
C834        H840   1.111       .  S
C841        C842   1.411       .  A
C841        C846   1.408       .  A
C841        H848   1.082       .  S
C842        C843   1.423       .  A
C843        C844   1.395       .  A
C843        C850   1.512       .  S
C844        C845   1.396       .  A
C844        H849   1.085       .  S
C845        C846   1.408       .  A
C846        C847   1.505       .  S
C847        H851   1.111       .  S
C847        H852   1.110       .  S
C847        H853   1.110       .  S
C850        H854   1.110       .  S
C850        H855   1.109       .  S
C850        H856   1.111       .  S
C857        C858   1.407       .  A
C857        C862   1.406       .  A
C857        H864   1.084       .  S
C858        C859   1.416       .  A
C859        C860   1.397       .  A
C859        C866   1.511       .  S
C860        C861   1.405       .  A
C860        H865   1.084       .  S
C861        C862   1.416       .  A
C862        C863   1.507       .  S
C863        H867   1.111       .  S
C863        H868   1.109       .  S
C863        H869   1.111       .  S
C866        H870   1.109       .  S
C866        H871   1.111       .  S
C866        H872   1.111       .  S
C873        C874   1.404       .  A
C873        C878   1.401       .  A
C873        H880   1.084       .  S
C874        C875   1.414       .  A
C875        C876   1.404   1_554  A
C875        C882   1.507       .  S
C876        C877   1.402       .  A
C876        H881   1.084       .  S
C877        C878   1.410   1_556  A
C878        C879   1.507       .  S
C879        H883   1.111       .  S
C879        H884   1.109       .  S
C879        H885   1.110       .  S
C882        H886   1.109       .  S
C882        H887   1.110       .  S
C882        H888   1.111       .  S
C889        C890   1.407       .  A
C889        C894   1.401       .  A
C889        H896   1.084       .  S
C890        C891   1.417       .  A
C891        C892   1.403       .  A
C891        C898   1.509       .  S
C892        C893   1.405       .  A
C892        H897   1.083       .  S
C893        C894   1.415       .  A
C894        C895   1.508       .  S
C895        H899   1.111       .  S
C895        H900   1.108       .  S
C895        H901   1.110       .  S
C898        H902   1.110       .  S
C898        H903   1.110       .  S
C898        H904   1.111       .  S
C905        C906   1.405       .  A
C905        C910   1.402       .  A
C905        H912   1.084       .  S
C906        C907   1.416       .  A
C907        C908   1.405       .  A
C907        C914   1.508       .  S
C908        C909   1.403       .  A
C908        H913   1.084       .  S
C909        C910   1.411       .  A
C910        C911   1.508       .  S
C911        H915   1.111       .  S
C911        H916   1.109       .  S
C911        H917   1.110       .  S
C914        H918   1.109       .  S
C914        H919   1.110       .  S
C914        H920   1.111       .  S
C921        C922   1.402       .  A
C921        C926   1.407       .  A
C921        H928   1.084       .  S
C922        C923   1.411       .  A
C923        C924   1.400       .  A
C923        C930   1.510       .  S
C924        C925   1.410   1_565  A
C924        H929   1.083   1_565  S
C925        C926   1.422   1_545  A
C926        C927   1.507   1_565  S
C927        H931   1.111   1_545  S
C927        H932   1.110       .  S
C927        H933   1.106       .  S
C930        H934   1.110       .  S
C930        H935   1.111       .  S
C930        H936   1.111       .  S
C937        C938   1.406       .  A
C937        C942   1.397       .  A
C937        H944   1.083       .  S
C938        C939   1.422       .  A
C939        C940   1.408       .  A
C939        C946   1.507       .  S
C940        C941   1.402   1_565  A
C940        H945   1.084       .  S
C941        C942   1.415   1_545  A
C942        C943   1.511   1_565  S
C943        H947   1.111       .  S
C943        H948   1.110       .  S
C943        H949   1.109       .  S
C946        H950   1.110       .  S
C946        H951   1.110       .  S
C946        H952   1.111       .  S
C953        C954   1.401       .  A
C953        C958   1.405       .  A
C953        H960   1.084       .  S
C954        C955   1.415       .  A
C955        C956   1.401   1_565  A
C955        C962   1.509       .  S
C956        C957   1.406   1_545  A
C956        H961   1.083       .  S
C957        C958   1.425       .  A
C958        C959   1.510       .  S
C959        H963   1.111       .  S
C959        H964   1.110       .  S
C959        H965   1.110       .  S
C962        H966   1.110       .  S
C962        H967   1.109       .  S
C962        H968   1.111   1_565  S
C969        C970   1.405       .  A
C969        C974   1.399       .  A
C969        H976   1.084       .  S
C970        C971   1.417       .  A
C971        C972   1.404       .  A
C971        C978   1.507       .  S
C972        C973   1.400       .  A
C972        H977   1.084       .  S
C973        C974   1.407       .  A
C974        C975   1.507       .  S
C975        H979   1.111       .  S
C975        H980   1.108       .  S
C975        H981   1.110       .  S
C978        H982   1.110       .  S
C978        H983   1.110       .  S
C978        H984   1.111       .  S
C985        C986   1.404       .  A
C985        C990   1.401       .  A
C985        H992   1.084       .  S
C986        C987   1.418       .  A
C987        C988   1.405       .  A
C987        C994   1.509       .  S
C988        C989   1.406       .  A
C988        H993   1.084       .  S
C989        C990   1.419       .  A
C990        C991   1.510       .  S
C991        H995   1.111       .  S
C991        H996   1.109       .  S
C991        H997   1.110       .  S
C994        H998   1.110       .  S
C994        H999   1.110       .  S
C994       H1000   1.111       .  S
C1001      C1002   1.405       .  A
C1001      C1006   1.408       .  A
C1001      H1008   1.084       .  S
C1002      C1003   1.415       .  A
C1003      C1004   1.395       .  A
C1003      C1010   1.511       .  S
C1004      C1005   1.405       .  A
C1004      H1009   1.084       .  S
C1005      C1006   1.419       .  A
C1006      C1007   1.507   1_565  S
C1007      H1011   1.111   1_545  S
C1007      H1012   1.110       .  S
C1007      H1013   1.110       .  S
C1010      H1014   1.109       .  S
C1010      H1015   1.110       .  S
C1010      H1016   1.111       .  S
C1017      C1018   1.402       .  A
C1017      C1022   1.405       .  A
C1017      H1024   1.084       .  S
C1018      C1019   1.412       .  A
C1019      C1020   1.401       .  A
C1019      C1026   1.508       .  S
C1020      C1021   1.401       .  A
C1020      H1025   1.084       .  S
C1021      C1022   1.414       .  A
C1022      C1023   1.507       .  S
C1023      H1027   1.111       .  S
C1023      H1029   1.110       .  S
C1026      H1030   1.109       .  S
C1026      H1031   1.110       .  S
C1026      H1032   1.111       .  S
C1033      C1034   1.404       .  A
C1033      C1038   1.404       .  A
C1033      H1040   1.084       .  S
C1034      C1035   1.418       .  A
C1035      C1036   1.401       .  A
C1035      C1042   1.509       .  S
C1036      C1037   1.401       .  A
C1036      H1041   1.084       .  S
C1037      C1038   1.415       .  A
C1038      C1039   1.508       .  S
C1039      H1043   1.111       .  S
C1039      H1044   1.110       .  S
C1039      H1045   1.109       .  S
C1042      H1046   1.110       .  S
C1042      H1047   1.110       .  S
C1042      H1048   1.111       .  S
