geometry optimzed in LAMMPS
_audit_creation_date              2020-11-30 
_audit_creation_method            'lammps2cif' 
_symmetry_space_group_name_H-M    'P1' 
_symmetry_Int_Tables_number       1 
_symmetry_cell_setting            triclinic 
loop_ 
_symmetry_equiv_pos_as_xyz 
  x,y,z 
_cell_length_a                    39.74728592 
_cell_length_b                    39.860123335655615 
_cell_length_c                    32.15378646722151 
_cell_angle_alpha                 89.22060115224063 
_cell_angle_beta                  90.55930687948975 
_cell_angle_gamma                 90.34526054442162 
loop_ 
_atom_site_label 
_atom_site_type_symbol 
_atom_site_fract_x 
_atom_site_fract_y 
_atom_site_fract_z 
_atom_site_charge 
C1          C  0.24977385  0.13860871  0.31431975     0.85500
C2          C  0.28061529  0.15764220  0.33049856    -0.54700
C3          C  0.27993618  0.16496253  0.37172531     0.08400
C4          C  0.24831782  0.15163428  0.39409919     0.19400
C5          C  0.24860460  0.10689827  0.34261744    -0.55500
C6          C  0.24794322  0.11404454  0.38414664     0.08500
C7          C  0.21937048  0.15900676  0.32781584    -0.55000
C8          C  0.21793970  0.16536584  0.36932100     0.09100
H9          H  0.30127865  0.16534239  0.31056719     0.13600
H10         H  0.24778073  0.15709085  0.42788142    -0.00600
H11         H  0.24869465  0.08122428  0.33207361     0.13900
H12         H  0.20028475  0.16774180  0.30586378     0.13700
C13         C  0.09641750  0.29776807  0.31938596     0.85500
C14         C  0.11447335  0.26569431  0.33408600    -0.54700
C15         C  0.12219101  0.26377252  0.37575405     0.08400
C16         C  0.11139936  0.29527452  0.39923704     0.19400
C17         C  0.06552914  0.30015305  0.34795364    -0.55500
C18         C  0.07352255  0.29822556  0.38948642     0.08500
C19         C  0.11888463  0.32660204  0.33464557    -0.55000
C20         C  0.12758216  0.32497871  0.37546151     0.09100
H21         H  0.12114141  0.24613446  0.31249278     0.13600
H22         H  0.11685617  0.29506962  0.43295404    -0.00600
H23         H  0.03983192  0.30368245  0.33769901     0.13900
H24         H  0.12836461  0.34644826  0.31429862     0.13700
C25         C  0.41384336  0.28897544  0.31754553     0.85500
C26         C  0.39238258  0.31982362  0.32605372    -0.54700
C27         C  0.38159954  0.32258573  0.36601041     0.08400
C28         C  0.39337246  0.29339857  0.39459474     0.19400
C29         C  0.44245722  0.28996244  0.34922106    -0.55500
C30         C  0.43199637  0.29249651  0.38919373     0.08500
C31         C  0.39104158  0.25970119  0.33231233    -0.55000
C32         C  0.38044661  0.26166775  0.37260753     0.09100
H33         H  0.38309447  0.33630103  0.30138049     0.13600
H34         H  0.38526205  0.29503134  0.42741768    -0.00600
H35         H  0.46881946  0.28831941  0.34085735     0.13900
H36         H  0.38256856  0.23959856  0.31226596     0.13700
C37         C  0.24666235  0.45865227  0.30910760     0.85500
C38         C  0.21660465  0.43866773  0.32749660    -0.54700
C39         C  0.22101709  0.42856665  0.36808804     0.08400
C40         C  0.25544804  0.43811307  0.38634313     0.19400
C41         C  0.25326691  0.48705283  0.33959269    -0.55500
C42         C  0.25781017  0.47640919  0.37976688     0.08500
C43         C  0.27621741  0.43439731  0.31589692    -0.55000
C44         C  0.28046519  0.42309928  0.35568904     0.09100
H45         H  0.19566125  0.42926409  0.30920482     0.13600
H46         H  0.25910267  0.42946482  0.41907529    -0.00600
H47         H  0.23337772  0.01118227  0.33364814     0.13900
H48         H  0.29136320  0.42502579  0.29065601     0.13700
C49         C  0.24871437  0.13278997  0.12989378     0.85500
C50         C  0.21943900  0.15527078  0.11557355    -0.54700
C51         C  0.21959161  0.16436363  0.07464181     0.08400
C52         C  0.24870371  0.14902157  0.05027423     0.19400
C53         C  0.24654005  0.10244110  0.10088038    -0.55500
C54         C  0.24630588  0.11110992  0.05966305     0.08500
C55         C  0.28061935  0.15124480  0.11470263    -0.55000
C56         C  0.28083526  0.16009762  0.07343009     0.09100
H57         H  0.20167402  0.16592543  0.13718087     0.13600
H58         H  0.24816360  0.15503911  0.01658695    -0.00600
H59         H  0.24685645  0.07638349  0.10986670     0.13900
H60         H  0.30127405  0.15757025  0.13563145     0.13700
C61         C  0.10017023  0.30213936  0.13448436     0.85500
C62         C  0.11550518  0.33451511  0.11608004    -0.54700
C63         C  0.12219978  0.33335750  0.07444379     0.08400
C64         C  0.11248288  0.29988383  0.05447132     0.19400
C65         C  0.06844451  0.29653586  0.10715742    -0.55500
C66         C  0.07513764  0.29550292  0.06550288     0.08500
C67         C  0.12395591  0.27396463  0.12180964    -0.55000
C68         C  0.13095734  0.27303412  0.08056620     0.09100
H69         H  0.12191453  0.35608804  0.13492092     0.13600
H70         H  0.11771118  0.29902322  0.02066589    -0.00600
H71         H  0.04291875  0.29463578  0.11841617     0.13900
H72         H  0.13531928  0.25657571  0.14409953     0.13700
C73         C  0.41224015  0.28341087  0.13958154     0.85500
C74         C  0.39217528  0.25266025  0.12451824    -0.54700
C75         C  0.38277940  0.25398656  0.08348528     0.08400
C76         C  0.39243834  0.28719208  0.06157604     0.19400
C77         C  0.44100607  0.28788951  0.10895185    -0.55500
C78         C  0.43087886  0.28970948  0.06843490     0.08500
C79         C  0.38805500  0.31249075  0.12971459    -0.55000
C80         C  0.37724741  0.31445203  0.08934243     0.09100
H81         H  0.38357783  0.23262086  0.14494593     0.13600
H82         H  0.38429927  0.28875563  0.02845699    -0.00600
H83         H  0.46732858  0.28835982  0.11841835     0.13900
H84         H  0.37842565  0.32904764  0.15333169     0.13700
C85         C  0.24994037  0.45666830  0.13027271     0.85500
C86         C  0.27864359  0.43176602  0.12363259    -0.54700
C87         C  0.28215137  0.42115750  0.08371255     0.08400
C88         C  0.25597667  0.43653472  0.05324249     0.19400
C89         C  0.25552657  0.48515216  0.09889226    -0.55500
C90         C  0.25868376  0.47481846  0.05896044     0.08500
C91         C  0.21905667  0.43752651  0.11301786    -0.55000
C92         C  0.22186646  0.42718604  0.07267337     0.09100
H93         H  0.29349973  0.42128946  0.14915241     0.13600
H94         H  0.25871733  0.42883076  0.02044024    -0.00600
H95         H  0.23786117  0.00611641  0.11197623     0.13900
H96         H  0.19726518  0.43081234  0.13140162     0.13700
O97         O  0.03409576  0.32251019  0.43513830    -0.75400
O98         O  0.46814455  0.31750917  0.02229062    -0.75400
O99         O  0.03472162  0.32001501  0.01988330    -0.75500
O100        O  0.46874907  0.31960406  0.43658742    -0.75500
O101        O  0.46669041  0.26356048  0.43706402    -0.75500
O102        O  0.04025249  0.26426372  0.02018369    -0.75500
O103        O  0.46587596  0.26149989  0.02146359    -0.75400
O104        O  0.03964384  0.26677165  0.43611663    -0.75500
Ni105      Ni  0.50312909  0.32016227  0.47880109     1.25400
Ni106      Ni  0.50026547  0.26012296  0.47968427     1.25400
C107        C  0.04785252  0.29581253  0.42186661     0.86800
C108        C  0.45569024  0.28964589  0.03518577     0.86700
C109        C  0.04864212  0.29313638  0.03376427     0.86700
C110        C  0.45648139  0.29196227  0.42322294     0.86900
O111        O  0.27288074  0.07370023  0.01416232    -0.75400
O112        O  0.27084623  0.00765822  0.43185025    -0.75400
O113        O  0.27415319  0.07551398  0.43053928    -0.75500
O114        O  0.27042248  0.00567714  0.01490833    -0.75500
O115        O  0.21425753  0.00768850  0.01469698    -0.75500
O116        O  0.21802174  0.07845370  0.43011260    -0.75500
O117        O  0.21475139  0.01085376  0.43041437    -0.75400
O118        O  0.21668760  0.07559968  0.01396759    -0.75500
Ni119      Ni  0.27441180  0.04164927  0.47340289     1.25400
Ni120      Ni  0.21424572  0.04447560  0.47234192     1.25400
C121        C  0.24527029  0.08575570  0.02743824     0.86800
C122        C  0.25806187  0.50025442  0.41386092     0.86700
C123        C  0.24666601  0.08802021  0.41645933     0.86700
C124        C  0.25892541  0.49925821  0.02468325     0.86900
C125        C  0.34921700  0.33739702  0.07762107    -0.07100
C126        C  0.35535150  0.36556658  0.05199512    -0.18200
C127        C  0.33281075  0.39275359  0.05066216     0.10100
C128        C  0.30352863  0.39151282  0.07532986    -0.07000
C129        C  0.29596433  0.36182668  0.09738979    -0.18300
C130        C  0.31827710  0.33482816  0.09865416     0.10100
S131        S  0.34545272  0.43406965  0.52795344    -0.33200
S132        S  0.30781072  0.29768846  0.12893616    -0.33200
H133        H  0.27837118  0.31017521  0.14690788     0.28100
H134        H  0.33113351  0.45582398  0.55680120     0.28100
H135        H  0.37891963  0.36750045  0.03545194     0.18700
H136        H  0.27296203  0.36045620  0.11514886     0.18700
C137        C  0.14155832  0.36044887  0.05340832    -0.07100
C138        C  0.17234478  0.35224995  0.03544602    -0.18200
C139        C  0.19910495  0.37547030  0.03522604     0.10100
C140        C  0.19416240  0.40744173  0.05286928    -0.07000
C141        C  0.16106314  0.41755528  0.06101021    -0.18300
C142        C  0.13465994  0.39435912  0.06117005     0.10100
S143        S  0.23950114  0.36228395  0.01656163    -0.33200
S144        S  0.09234586  0.41055359  0.58056799    -0.33200
H145        H  0.07442551  0.38336999  0.56351444     0.28100
H146        H  0.22915834  0.33090403  0.00133525     0.28100
H147        H  0.17669446  0.32661286  0.02642157     0.18700
H148        H  0.15636641  0.44280385  0.07153983     0.18700
C149        C  0.15616481  0.24915086  0.06517483    -0.07100
C150        C  0.14524741  0.21890464  0.04749771    -0.18200
C151        C  0.16716387  0.19149658  0.04468467     0.10100
C152        C  0.20005039  0.19411959  0.06121367    -0.07000
C153        C  0.21150829  0.22517636  0.07565707    -0.18300
C154        C  0.19026999  0.25286949  0.07670559     0.10100
S155        S  0.15120190  0.15512024  0.52361438    -0.33200
S156        S  0.20649220  0.29179976  0.09668637    -0.33200
H157        H  0.24042687  0.28482997  0.08863101     0.28100
H158        H  0.18278400  0.14279725  0.51206430     0.28100
H159        H  0.11910229  0.21595308  0.03833482     0.18700
H160        H  0.23653019  0.22705272  0.08917319     0.18700
C161        C  0.30991128  0.17939572  0.05600243    -0.07100
C162        C  0.34218954  0.16949139  0.06921028    -0.18200
C163        C  0.36829969  0.19299020  0.07306489     0.10100
C164        C  0.36160813  0.22718989  0.06486680    -0.07000
C165        C  0.33165015  0.23582969  0.04414126    -0.18300
C166        C  0.30624915  0.21180080  0.03810082     0.10100
S167        S  0.40956083  0.17944299  0.09000322    -0.33200
S168        S  0.27069792  0.22913855  0.51311891    -0.33200
H169        H  0.27265721  0.20218558  0.48560750     0.28100
H170        H  0.40186660  0.14505090  0.09373665     0.28100
H171        H  0.34596050  0.14399615  0.08028765     0.18700
H172        H  0.32712131  0.26165801  0.03486499     0.18700
C173        C  0.24430570  0.47029404  0.26338296    -0.07100
C174        C  0.27456074  0.47765062  0.24265305    -0.18600
C175        C  0.27647451  0.47719982  0.19929265     0.10100
C176        C  0.24752894  0.46843187  0.17553159    -0.07000
C177        C  0.21623777  0.46952631  0.19585307    -0.18300
C178        C  0.21427298  0.47140511  0.23941988     0.10100
S179        S  0.29804994  0.98446328  0.17667528    -0.33200
S180        S  0.17409771  0.47996594  0.26280979    -0.33200
H181        H  0.15463897  0.47959916  0.22604889     0.28100
H182        H  0.31615191  0.99323385  0.21275833     0.28100
H183        H  0.27906956  0.98211882  0.26306973     0.18700
H184        H  0.19320069  0.46934186  0.17784536     0.18700
C185        C  0.42553077  0.28693248  0.27243076    -0.07100
C186        C  0.42694707  0.25556530  0.25303200    -0.18200
C187        C  0.42761539  0.25312695  0.20973171     0.10100
C188        C  0.42419334  0.28266009  0.18499700    -0.07000
C189        C  0.43107452  0.31340561  0.20433422    -0.18300
C190        C  0.43288673  0.31574756  0.24759767     0.10100
S191        S  0.43694556  0.21243256  0.18917437    -0.33200
S192        S  0.44432379  0.35620419  0.26820924    -0.33200
H193        H  0.45967705  0.34369180  0.30462519     0.28100
H194        H  0.45245111  0.22506772  0.15303695     0.28100
H195        H  0.42758329  0.23270931  0.27157620     0.18700
H196        H  0.43363975  0.33609009  0.18565366     0.18700
C197        C  0.35258067  0.34472378  0.37378362    -0.07100
C198        C  0.32420856  0.33957361  0.34831356    -0.18200
C199        C  0.29977989  0.36416776  0.34296752     0.10100
C200        C  0.30279853  0.39438791  0.36531098    -0.07000
C201        C  0.32928406  0.39826979  0.39407617    -0.18300
C202        C  0.35455201  0.37389760  0.39818801     0.10100
S203        S  0.26617097  0.35712418  0.30546868    -0.33200
S204        S  0.39003407  0.38335737  0.43140571    -0.33200
H205        H  0.39912281  0.35014026  0.44023513     0.28100
H206        H  0.27406565  0.32375943  0.29597347     0.28100
H207        H  0.32266470  0.31697889  0.33001717     0.18700
H208        H  0.33150885  0.42136865  0.41131468     0.18700
C209        C  0.09361675  0.29859544  0.27135160    -0.07100
C210        C  0.12427583  0.30362804  0.25049023    -0.18200
C211        C  0.12639540  0.30709670  0.20743599     0.10100
C212        C  0.09714922  0.30294325  0.18223022    -0.07000
C213        C  0.06644203  0.29635779  0.20261926    -0.18300
C214        C  0.06442038  0.29335686  0.24628135     0.10100
S215        S  0.16750575  0.31624400  0.18593865    -0.33200
S216        S  0.02502735  0.27774433  0.26587021    -0.33200
H217        H  0.04027563  0.25418444  0.29293177     0.28100
H218        H  0.18579897  0.31914501  0.22339013     0.28100
H219        H  0.14733743  0.30502996  0.26854199     0.18700
H220        H  0.04378291  0.29164728  0.18492836     0.18700
C221        C  0.19877708  0.40286010  0.38721986    -0.07100
C222        C  0.21020587  0.36977366  0.38738502    -0.18200
C223        C  0.18741085  0.34296352  0.38600799     0.10100
C224        C  0.15275669  0.34907582  0.39138722    -0.07000
C225        C  0.14202191  0.38200703  0.39834745    -0.18300
C226        C  0.16457923  0.40906820  0.39514858     0.10100
S227        S  0.20217679  0.30313003  0.36750422    -0.33200
S228        S  0.14799167  0.45092829  0.39778822    -0.33200
H229        H  0.17865857  0.46639845  0.40856274     0.28100
H230        H  0.23659742  0.30883847  0.37547843     0.28100
H231        H  0.23654500  0.36519013  0.38245802     0.18700
H232        H  0.11539111  0.38699861  0.40141726     0.18700
C233        C  0.24902735  0.12994057  0.17794605    -0.07100
C234        C  0.25303516  0.16098835  0.19797186    -0.18200
C235        C  0.25290738  0.16424863  0.24098822     0.10100
C236        C  0.25014136  0.13522496  0.26680015    -0.07000
C237        C  0.24587743  0.10398804  0.24737604    -0.18300
C238        C  0.24430045  0.10090586  0.20370709     0.10100
S239        S  0.25564088  0.20639912  0.26169097    -0.33200
S240        S  0.23401557  0.05995323  0.18381969    -0.33200
H241        H  0.22566700  0.04390816  0.22158709     0.28100
H242        H  0.25412816  0.22446404  0.22384705     0.28100
H243        H  0.25570316  0.18355309  0.17915186     0.18700
H244        H  0.24256970  0.08169492  0.26611487     0.18700
C245        C  0.18894642  0.18361282  0.38691730    -0.07100
C246        C  0.19456370  0.21096536  0.41307757    -0.18200
C247        C  0.16962244  0.23535548  0.41793069     0.10100
C248        C  0.13985305  0.23351445  0.39338992    -0.07000
C249        C  0.13172073  0.20247873  0.37556216    -0.18300
C250        C  0.15582055  0.17723958  0.37266827     0.10100
S251        S  0.17732223  0.26738503  0.45567178    -0.33200
S252        S  0.14455653  0.13778306  0.34896721    -0.33200
H253        H  0.11004299  0.14443875  0.34374850     0.28100
H254        H  0.14631160  0.26140600  0.47505807     0.28100
H255        H  0.21878841  0.21431969  0.42806547     0.18700
H256        H  0.10756807  0.19933952  0.36017853     0.18700
C257        C  0.30747873  0.18510576  0.39041960    -0.07100
C258        C  0.30014015  0.21734383  0.40432795    -0.18200
C259        C  0.32513715  0.24244744  0.40556606     0.10100
C260        C  0.35761524  0.23532244  0.39033044    -0.07000
C261        C  0.36587936  0.20173263  0.38288816    -0.18300
C262        C  0.34134346  0.17652937  0.38358085     0.10100
S263        S  0.31415867  0.28347968  0.42369109    -0.33200
S264        S  0.35398991  0.13449525  0.37106248    -0.33200
H265        H  0.32606383  0.11848829  0.38934856     0.28100
H266        H  0.28057213  0.27617365  0.43404038     0.28100
H267        H  0.27429864  0.22374303  0.41033821     0.18700
H268        H  0.39111014  0.19552828  0.37319624     0.18700
C269        C  0.24882232  0.13798360  0.81521622     0.85500
C270        C  0.28124671  0.15451035  0.83089846    -0.54700
C271        C  0.28173506  0.16179409  0.87211615     0.08400
C272        C  0.24964109  0.15025707  0.89521320     0.19400
C273        C  0.24583463  0.10611192  0.84289763    -0.55500
C274        C  0.24636301  0.11279201  0.88461219     0.08500
C275        C  0.22020123  0.16031204  0.82984338    -0.55000
C276        C  0.21985780  0.16623372  0.87148354     0.09100
H277        H  0.30180430  0.16138867  0.81037122     0.13600
H278        H  0.24998105  0.15539957  0.92907349    -0.00600
H279        H  0.24425691  0.08064739  0.83167685     0.13900
H280        H  0.20107434  0.17014338  0.80865971     0.13700
C281        C  0.09792058  0.29676786  0.82055796     0.85500
C282        C  0.11692086  0.26546165  0.83597119    -0.54700
C283        C  0.12452714  0.26435251  0.87771787     0.08400
C284        C  0.11285085  0.29593623  0.90043272     0.19400
C285        C  0.06695342  0.29871057  0.84884807    -0.55500
C286        C  0.07485876  0.29767786  0.89040073     0.08500
C287        C  0.11954376  0.32652516  0.83518499    -0.55000
C288        C  0.12830385  0.32577721  0.87601453     0.09100
H289        H  0.12400283  0.24567205  0.81491257     0.13600
H290        H  0.11831015  0.29628691  0.93416556    -0.00600
H291        H  0.04120374  0.30116621  0.83815896     0.13900
H292        H  0.12844190  0.34637191  0.81444558     0.13700
C293        C  0.41604366  0.29037317  0.81726344     0.85500
C294        C  0.39392983  0.32060695  0.82643306    -0.54700
C295        C  0.38248175  0.32209400  0.86615803     0.08400
C296        C  0.39396738  0.29225413  0.89379941     0.19400
C297        C  0.44398717  0.29081630  0.84985923    -0.55500
C298        C  0.43267870  0.29190854  0.88958639     0.08500
C299        C  0.39335275  0.26032195  0.82999850    -0.55000
C300        C  0.38179198  0.26103635  0.87003340     0.09100
H301        H  0.38476797  0.33764307  0.80228557     0.13600
H302        H  0.38525377  0.29301835  0.92644770    -0.00600
H303        H  0.47054246  0.28997806  0.84225416     0.13900
H304        H  0.38580739  0.24064088  0.80879321     0.13700
C305        C  0.24899144  0.45887396  0.80964007     0.85500
C306        C  0.21833468  0.43986180  0.82808552    -0.54700
C307        C  0.22242942  0.42967587  0.86868645     0.08400
C308        C  0.25719708  0.43830769  0.88684867     0.19400
C309        C  0.25652872  0.48709780  0.83981210    -0.55500
C310        C  0.26080520  0.47647098  0.87990898     0.08500
C311        C  0.27777207  0.43372406  0.81636729    -0.55000
C312        C  0.28176082  0.42252033  0.85626650     0.09100
H313        H  0.19714773  0.43106595  0.80972483     0.13600
H314        H  0.26065811  0.42973557  0.91964250    -0.00600
H315        H  0.23187978  0.00923358  0.83437076     0.13900
H316        H  0.29266805  0.42394529  0.79114235     0.13700
C317        C  0.24803845  0.13507359  0.63091275     0.85500
C318        C  0.21872984  0.15711911  0.61613312    -0.54700
C319        C  0.21939460  0.16647011  0.57533675     0.08400
C320        C  0.24926741  0.15179079  0.55153274     0.19400
C321        C  0.24715020  0.10479945  0.60172295    -0.55500
C322        C  0.24733101  0.11362012  0.56045320     0.08500
C323        C  0.27998002  0.15406250  0.61681314    -0.55000
C324        C  0.28084289  0.16334561  0.57575042     0.09100
H325        H  0.20053758  0.16741588  0.63747885     0.13600
H326        H  0.24922650  0.15812088  0.51791642    -0.00600
H327        H  0.24831725  0.07877075  0.61117421     0.13900
H328        H  0.30026685  0.16034441  0.63830629     0.13700
C329        C  0.09856574  0.30234554  0.63572101     0.85500
C330        C  0.11296915  0.33537575  0.61796443    -0.54700
C331        C  0.12005513  0.33490820  0.57643034     0.08400
C332        C  0.11114183  0.30147308  0.55571434     0.19400
C333        C  0.06697670  0.29634968  0.60821691    -0.55500
C334        C  0.07380746  0.29618204  0.56641677     0.08500
C335        C  0.12301940  0.27498647  0.62257168    -0.55000
C336        C  0.13007985  0.27465949  0.58137621     0.09100
H337        H  0.11874750  0.35683836  0.63727495     0.13600
H338        H  0.11658934  0.30109190  0.52191195    -0.00600
H339        H  0.04152027  0.29389483  0.61965634     0.13900
H340        H  0.13472471  0.25758602  0.64458501     0.13700
C341        C  0.41575786  0.28764306  0.64011865     0.85500
C342        C  0.39566056  0.25640077  0.62647796    -0.54700
C343        C  0.38508343  0.25705805  0.58583431     0.08400
C344        C  0.39410557  0.28995783  0.56282829     0.19400
C345        C  0.44373231  0.29196523  0.60839974    -0.55500
C346        C  0.43259319  0.29293507  0.56824599     0.08500
C347        C  0.39104346  0.31634962  0.63044788    -0.55000
C348        C  0.37948321  0.31757034  0.59037361     0.09100
H349        H  0.38795860  0.23656594  0.64778783     0.13600
H350        H  0.38522566  0.29099568  0.52996936    -0.00600
H351        H  0.47025853  0.29283273  0.61687769     0.13900
H352        H  0.38158025  0.33311588  0.65393219     0.13700
C353        C  0.25045536  0.45745380  0.63175328     0.85500
C354        C  0.27788484  0.43121629  0.62528608    -0.54700
C355        C  0.28101213  0.42069510  0.58538483     0.08400
C356        C  0.25540255  0.43694163  0.55488921     0.19400
C357        C  0.25758099  0.48562344  0.60038874    -0.55500
C358        C  0.25985245  0.47509740  0.56040239     0.08500
C359        C  0.21869383  0.43974295  0.61471289    -0.55000
C360        C  0.22095507  0.42896457  0.57451487     0.09100
H361        H  0.29275699  0.42054454  0.65067838     0.13600
H362        H  0.25780702  0.42907789  0.52211760    -0.00600
H363        H  0.23622643  0.00996527  0.61284447     0.13900
H364        H  0.19685889  0.43382050  0.63340495     0.13700
O365        O  0.03474022  0.32130434  0.93555859    -0.75400
O366        O  0.46912307  0.31968906  0.52048252    -0.75400
O367        O  0.03427160  0.32131566  0.51982953    -0.75500
O368        O  0.46830970  0.31864769  0.93842880    -0.75500
O369        O  0.46688068  0.26260239  0.93778151    -0.75500
O370        O  0.03892162  0.26549222  0.52034788    -0.75500
O371        O  0.46593919  0.26368841  0.52068151    -0.75400
O372        O  0.04093941  0.26563116  0.93628131    -0.75500
Ni373      Ni  0.50244698  0.31907495  0.98086761     1.25400
Ni374      Ni  0.50043841  0.25902544  0.98049603     1.25400
C375        C  0.04898713  0.29482878  0.92241516     0.86800
C376        C  0.45650252  0.29215908  0.53416993     0.86700
C377        C  0.04756362  0.29422787  0.53414285     0.86700
C378        C  0.45652278  0.29107172  0.92429702     0.86900
O379        O  0.27393192  0.07597964  0.51474829    -0.75400
O380        O  0.26971757  0.00607542  0.93091184    -0.75400
O381        O  0.27263418  0.07395292  0.93027056    -0.75500
O382        O  0.27056335  0.00792912  0.51625151    -0.75500
O383        O  0.21442968  0.01032844  0.51480441    -0.75500
O384        O  0.21647068  0.07629195  0.93006911    -0.75500
O385        O  0.21354082  0.00860692  0.93070166    -0.75400
O386        O  0.21778494  0.07818894  0.51406983    -0.75500
Ni387      Ni  0.27344178  0.03976120  0.97258222     1.25400
Ni388      Ni  0.21320914  0.04206765  0.97236974     1.25400
C389        C  0.24635227  0.08825237  0.52787883     0.86800
C390        C  0.26063356  0.50052099  0.91343856     0.86700
C391        C  0.24503230  0.08634755  0.91649137     0.86700
C392        C  0.25924995  0.49940108  0.52595017     0.86900
C393        C  0.35110920  0.33993341  0.57878909    -0.07100
C394        C  0.35730470  0.36936382  0.55553347    -0.18200
C395        C  0.33387935  0.39570558  0.55458673     0.10100
C396        C  0.30335962  0.39207911  0.57639599    -0.07000
C397        C  0.29612400  0.36144646  0.59647609    -0.18300
C398        C  0.31965214  0.33550778  0.59813550     0.10100
S399        S  0.34390617  0.42871190  0.01892434    -0.33200
S400        S  0.31016809  0.29760098  0.62736063    -0.33200
H401        H  0.28181073  0.30995528  0.64789774     0.28100
H402        H  0.32770500  0.45296269  0.04265024     0.28100
H403        H  0.38155222  0.37295084  0.54095534     0.18700
H404        H  0.27252264  0.35859828  0.61277028     0.18700
C405        C  0.13975894  0.36233462  0.55647712    -0.07100
C406        C  0.17035355  0.35417528  0.53800165    -0.18200
C407        C  0.19725002  0.37723481  0.53761474     0.10100
C408        C  0.19276463  0.40915164  0.55565936    -0.07000
C409        C  0.15982497  0.41924594  0.56486236    -0.18300
C410        C  0.13327561  0.39618082  0.56527243     0.10100
S411        S  0.23728250  0.36366201  0.51825846    -0.33200
S412        S  0.09338401  0.40854722  0.07525081    -0.33200
H413        H  0.07601047  0.38084100  0.05863449     0.28100
H414        H  0.22575338  0.33386379  0.49979473     0.28100
H415        H  0.17452218  0.32859332  0.52857555     0.18700
H416        H  0.15537909  0.44442784  0.57578842     0.18700
C417        C  0.15561332  0.25118752  0.56580415    -0.07100
C418        C  0.14503095  0.22099529  0.54768226    -0.18200
C419        C  0.16706720  0.19365778  0.54502983     0.10100
C420        C  0.19976521  0.19625731  0.56216319    -0.07000
C421        C  0.21075708  0.22713307  0.57767802    -0.18300
C422        C  0.18947557  0.25480929  0.57844685     0.10100
S423        S  0.15104656  0.15291591  0.02367703    -0.33200
S424        S  0.20515903  0.29368024  0.59930780    -0.33200
H425        H  0.23938210  0.28520773  0.59821168     0.28100
H426        H  0.18247123  0.14077528  0.01123587     0.28100
H427        H  0.11899842  0.21800556  0.53804418     0.18700
H428        H  0.23547679  0.22882749  0.59204284     0.18700
C429        C  0.31023012  0.18313830  0.55969795    -0.07100
C430        C  0.34235555  0.17295268  0.57331035    -0.18200
C431        C  0.36883569  0.19608828  0.57726166     0.10100
C432        C  0.36280446  0.23035695  0.56872116    -0.07000
C433        C  0.33283115  0.23937594  0.54820654    -0.18300
C434        C  0.30696297  0.21577842  0.54229706     0.10100
S435        S  0.40988083  0.18184016  0.59410985    -0.33200
S436        S  0.27006412  0.22419060  0.00814230    -0.33200
H437        H  0.27287242  0.19680115  0.98143166     0.28100
H438        H  0.40184364  0.14747022  0.59678500     0.28100
H439        H  0.34581203  0.14737898  0.58425850     0.18700
H440        H  0.32869262  0.26523774  0.53879751     0.18700
C441        C  0.24675858  0.47087528  0.76424705    -0.07100
C442        C  0.27702533  0.47754946  0.74319825    -0.18600
C443        C  0.27833007  0.47734130  0.69970610     0.10100
C444        C  0.24880560  0.46933023  0.67680884    -0.07000
C445        C  0.21781647  0.47165681  0.69752314    -0.18300
C446        C  0.21650343  0.47348977  0.74102959     0.10100
S447        S  0.29497966  0.98929271  0.68012074    -0.33200
S448        S  0.17715669  0.48387043  0.76535841    -0.33200
H449        H  0.15678540  0.48218255  0.72943060     0.28100
H450        H  0.31267997  0.99698454  0.71689549     0.28100
H451        H  0.27601162  0.98154025  0.76621121     0.18700
H452        H  0.19459323  0.47247587  0.67990468     0.18700
C453        C  0.42881717  0.28990036  0.77253260    -0.07100
C454        C  0.43235589  0.25906023  0.75240090    -0.18200
C455        C  0.43384907  0.25755686  0.70906388     0.10100
C456        C  0.42863008  0.28722642  0.68514510    -0.07000
C457        C  0.43371800  0.31794453  0.70530285    -0.18300
C458        C  0.43513589  0.31951123  0.74866663     0.10100
S459        S  0.44568207  0.21799854  0.68720405    -0.33200
S460        S  0.44521266  0.35983112  0.77068818    -0.33200
H461        H  0.45971221  0.34696950  0.80748374     0.28100
H462        H  0.45957968  0.23204395  0.65085183     0.28100
H463        H  0.43374737  0.23594617  0.77038951     0.18700
H464        H  0.43523042  0.34105060  0.68726455     0.18700
C465        C  0.35349519  0.34404641  0.87433592    -0.07100
C466        C  0.32493603  0.33886803  0.84924005    -0.18200
C467        C  0.30036444  0.36336186  0.84447214     0.10100
C468        C  0.30385728  0.39376829  0.86625759    -0.07000
C469        C  0.33073219  0.39783104  0.89443511    -0.18300
C470        C  0.35587133  0.37333253  0.89841510     0.10100
S471        S  0.26608411  0.35605471  0.80808185    -0.33200
S472        S  0.39187560  0.38259718  0.93081608    -0.33200
H473        H  0.39967573  0.34919655  0.94082189     0.28100
H474        H  0.27120132  0.32140949  0.80350422     0.28100
H475        H  0.32328033  0.31635002  0.83079631     0.18700
H476        H  0.33333541  0.42110179  0.91124466     0.18700
C477        C  0.09452033  0.29687937  0.77262229    -0.07100
C478        C  0.12438088  0.30393023  0.75108032    -0.18200
C479        C  0.12545307  0.30807462  0.70812562     0.10100
C480        C  0.09610549  0.30229772  0.68353342    -0.07000
C481        C  0.06642787  0.29270052  0.70451118    -0.18300
C482        C  0.06550509  0.28902007  0.74826133     0.10100
S483        S  0.16575889  0.31968353  0.68620017    -0.33200
S484        S  0.02855073  0.26880398  0.76890902    -0.33200
H485        H  0.04667901  0.24833268  0.79709586     0.28100
H486        H  0.18127336  0.33117596  0.72290653     0.28100
H487        H  0.14771825  0.30636971  0.76842535     0.18700
H488        H  0.04413137  0.28593439  0.68706506     0.18700
C489        C  0.19953297  0.40435547  0.88763813    -0.07100
C490        C  0.21083399  0.37123040  0.88922706    -0.18200
C491        C  0.18800673  0.34443726  0.88743559     0.10100
C492        C  0.15320374  0.35060190  0.89126194    -0.07000
C493        C  0.14234732  0.38374070  0.89658481    -0.18300
C494        C  0.16508513  0.41073119  0.89374231     0.10100
S495        S  0.20326574  0.30453698  0.86991170    -0.33200
S496        S  0.14858633  0.45269907  0.89482437    -0.33200
H497        H  0.17897029  0.46813410  0.90689734     0.28100
H498        H  0.23715234  0.30973993  0.88131878     0.28100
H499        H  0.23729867  0.36647912  0.88551417     0.18700
H500        H  0.11565213  0.38883950  0.89840267     0.18700
C501        C  0.24726448  0.13181143  0.67880267    -0.07100
C502        C  0.25290634  0.16222024  0.69966157    -0.18200
C503        C  0.25295001  0.16465779  0.74271244     0.10100
C504        C  0.24821232  0.13538578  0.76764887    -0.07000
C505        C  0.24072355  0.10505738  0.74733066    -0.18300
C506        C  0.23898673  0.10305686  0.70349589     0.10100
S507        S  0.25870822  0.20617130  0.76450735    -0.33200
S508        S  0.22161821  0.06514209  0.68163829    -0.33200
H509        H  0.22045124  0.04566523  0.71840524     0.28100
H510        H  0.25368880  0.22506095  0.72772202     0.28100
H511        H  0.25701277  0.18494851  0.68156651     0.18700
H512        H  0.23440212  0.08307601  0.76550107     0.18700
C513        C  0.19136416  0.18458003  0.89014975    -0.07100
C514        C  0.19735340  0.21247175  0.91531497    -0.18200
C515        C  0.17230084  0.23678859  0.92020033     0.10100
C516        C  0.14224101  0.23445667  0.89630141    -0.07000
C517        C  0.13389465  0.20303302  0.87973919    -0.18300
C518        C  0.15798984  0.17776074  0.87724885     0.10100
S519        S  0.17973928  0.26894658  0.95780849    -0.33200
S520        S  0.14653053  0.13773926  0.85523401    -0.33200
H521        H  0.11170020  0.14360287  0.85267728     0.28100
H522        H  0.14849799  0.26302682  0.97656971     0.28100
H523        H  0.22176010  0.21615590  0.92963653     0.18700
H524        H  0.10958053  0.19955129  0.86486797     0.18700
C525        C  0.30958948  0.18265142  0.88908734    -0.07100
C526        C  0.30201153  0.21496493  0.90243247    -0.18200
C527        C  0.32648565  0.24057981  0.90246584     0.10100
C528        C  0.35880530  0.23406439  0.88621947    -0.07000
C529        C  0.36736469  0.20061530  0.87822805    -0.18300
C530        C  0.34340300  0.17483458  0.88059642     0.10100
S531        S  0.31483708  0.28139283  0.92066500    -0.33200
S532        S  0.35663410  0.13283976  0.86887450    -0.33200
H533        H  0.32947407  0.11663255  0.88864310     0.28100
H534        H  0.28153599  0.27351392  0.93174768     0.28100
H535        H  0.27621475  0.22094986  0.90912978     0.18700
H536        H  0.39247906  0.19481576  0.86774578     0.18700
C537        C  0.25132243  0.64115704  0.31199178     0.85500
C538        C  0.28148954  0.66199856  0.32677414    -0.54700
C539        C  0.28183595  0.66890053  0.36812658     0.08400
C540        C  0.25199004  0.65344617  0.39201687     0.19400
C541        C  0.25313211  0.60925366  0.33988323    -0.55500
C542        C  0.25348133  0.61602346  0.38151940     0.08500
C543        C  0.22017756  0.65951274  0.32750900    -0.55000
C544        C  0.22000770  0.66548758  0.36922157     0.09100
H545        H  0.30091702  0.67116263  0.30587203     0.13600
H546        H  0.25233697  0.65858546  0.42590040    -0.00600
H547        H  0.25446062  0.58373281  0.32896003     0.13900
H548        H  0.19963262  0.66696635  0.30690841     0.13700
C549        C  0.08914757  0.78528450  0.32468800     0.85500
C550        C  0.10887783  0.75466973  0.34065732    -0.54700
C551        C  0.11711611  0.75449699  0.38216941     0.08400
C552        C  0.10476159  0.78607664  0.40437512     0.19400
C553        C  0.05837587  0.78696239  0.35343026    -0.55500
C554        C  0.06673414  0.78690267  0.39489466     0.08500
C555        C  0.11021833  0.81573160  0.33830520    -0.55000
C556        C  0.11916996  0.81582329  0.37909556     0.09100
H557        H  0.11658436  0.73492130  0.31987287     0.13600
H558        H  0.11052738  0.78715869  0.43799737    -0.00600
H559        H  0.03256483  0.78975611  0.34328549     0.13900
H560        H  0.11878176  0.83523342  0.31685309     0.13700
C561        C  0.41118166  0.80122878  0.31740132     0.85500
C562        C  0.38846068  0.83097856  0.32680529    -0.54700
C563        C  0.37692517  0.83202000  0.36659196     0.08400
C564        C  0.38930707  0.80238763  0.39406787     0.19400
C565        C  0.43925392  0.80229110  0.34989706    -0.55500
C566        C  0.42799962  0.80289779  0.38974788     0.08500
C567        C  0.38919369  0.77074187  0.33023150    -0.55000
C568        C  0.37791182  0.77101213  0.37031712     0.09100
H569        H  0.37842580  0.84747599  0.30262532     0.13600
H570        H  0.38070722  0.80281335  0.42678427    -0.00600
H571        H  0.46577785  0.80121785  0.34216744     0.13900
H572        H  0.38199749  0.75091667  0.30904613     0.13700
C573        C  0.23023760  0.95608271  0.31244670     0.85500
C574        C  0.20175987  0.93412534  0.33133042    -0.54700
C575        C  0.20718128  0.92439011  0.37189945     0.08400
C576        C  0.24108464  0.93623029  0.38963773     0.19400
C577        C  0.23506300  0.98491720  0.34286436    -0.55500
C578        C  0.24068419  0.97460380  0.38303720     0.08500
C579        C  0.26143504  0.93398477  0.31893249    -0.55000
C580        C  0.26680625  0.92297990  0.35856977     0.09100
H581        H  0.18137346  0.92325092  0.31335748     0.13600
H582        H  0.24565872  0.92784398  0.42230099    -0.00600
H583        H  0.25279126  0.51340713  0.33052237     0.13900
H584        H  0.27714378  0.92582700  0.29355321     0.13700
C585        C  0.25240340  0.63536444  0.12757876     0.85500
C586        C  0.22199325  0.65537400  0.11167977    -0.54700
C587        C  0.22292248  0.66457187  0.07085463     0.08400
C588        C  0.25406683  0.65180537  0.04804941     0.19400
C589        C  0.25379342  0.60499452  0.09843827    -0.55500
C590        C  0.25435572  0.61385157  0.05717791     0.08500
C591        C  0.28331466  0.65623398  0.11417291    -0.55000
C592        C  0.28443309  0.66502245  0.07295396     0.09100
H593        H  0.20252924  0.66434554  0.13224592     0.13600
H594        H  0.25430669  0.65801105  0.01439435    -0.00600
H595        H  0.25592230  0.57903114  0.10760536     0.13900
H596        H  0.30283920  0.66377466  0.13610019     0.13700
C597        C  0.09261926  0.78744899  0.13970043     0.85500
C598        C  0.10680943  0.82097561  0.12291484    -0.54700
C599        C  0.11290058  0.82165688  0.08108216     0.08400
C600        C  0.10421634  0.78875131  0.05944516     0.19400
C601        C  0.06082029  0.78185271  0.11244405    -0.55500
C602        C  0.06720598  0.78274301  0.07064578     0.08500
C603        C  0.11720792  0.76060248  0.12505780    -0.55000
C604        C  0.12388668  0.76169848  0.08364867     0.09100
H605        H  0.11261407  0.84206407  0.14284078     0.13600
H606        H  0.10914637  0.78933270  0.02550364    -0.00600
H607        H  0.03538643  0.77944686  0.12390169     0.13900
H608        H  0.12969040  0.74305591  0.14618459     0.13700
C609        C  0.41037267  0.79467377  0.13978763     0.85500
C610        C  0.39340967  0.76190810  0.12520882    -0.54700
C611        C  0.38364504  0.76208253  0.08424043     0.08400
C612        C  0.39008097  0.79583744  0.06200345     0.19400
C613        C  0.43847657  0.80176504  0.10883140    -0.55500
C614        C  0.42811348  0.80196731  0.06834828     0.08500
C615        C  0.38326647  0.82104726  0.12984504    -0.55000
C616        C  0.37238556  0.82168302  0.08951821     0.09100
H617        H  0.38663709  0.74146899  0.14609545     0.13600
H618        H  0.38178745  0.79649350  0.02891005    -0.00600
H619        H  0.46481599  0.80353488  0.11799719     0.13900
H620        H  0.37200340  0.83669478  0.15329795     0.13700
C621        C  0.23360340  0.95071321  0.13335573     0.85500
C622        C  0.26322334  0.92699892  0.12562233    -0.54700
C623        C  0.26685759  0.91756024  0.08517992     0.08400
C624        C  0.23965740  0.93238231  0.05563172     0.19400
C625        C  0.23810709  0.98001160  0.10272409    -0.55500
C626        C  0.24109855  0.97057550  0.06239375     0.08500
C627        C  0.20343934  0.93075596  0.11600471    -0.55000
C628        C  0.20612342  0.92140419  0.07533057     0.09100
H629        H  0.27906277  0.91702504  0.15053187     0.13600
H630        H  0.24214932  0.92542283  0.02255816    -0.00600
H631        H  0.25504775  0.51147862  0.10713813     0.13900
H632        H  0.18235403  0.92246534  0.13467834     0.13700
O633        O  0.03236343  0.81661828  0.44126207    -0.75400
O634        O  0.46967292  0.82381482  0.02277379    -0.75400
O635        O  0.03130739  0.81217513  0.02409959    -0.75500
O636        O  0.46779730  0.82454171  0.43793750    -0.75500
O637        O  0.45686730  0.76947756  0.43907876    -0.75500
O638        O  0.02778006  0.75620409  0.02613726    -0.75500
O639        O  0.45794877  0.76894930  0.02111173    -0.75400
O640        O  0.02846223  0.76067285  0.44126252    -0.75500
Ni641      Ni  0.50159446  0.82012214  0.48061144     1.25400
Ni642      Ni  0.48957844  0.76117446  0.48177072     1.25400
C643        C  0.04137053  0.78812111  0.42751754     0.86800
C644        C  0.45273318  0.79828377  0.03529499     0.86700
C645        C  0.04059089  0.78370006  0.03899818     0.86700
C646        C  0.45154880  0.79898809  0.42452846     0.86900
O647        O  0.28478512  0.57920572  0.01187388    -0.75400
O648        O  0.28601017  0.51187837  0.42778409    -0.75400
O649        O  0.28343300  0.57970593  0.42703913    -0.75500
O650        O  0.28697436  0.51131146  0.01204595    -0.75500
O651        O  0.23078455  0.50945724  0.00969061    -0.75500
O652        O  0.22723741  0.57764160  0.42759707    -0.75500
O653        O  0.22981788  0.51005108  0.42781890    -0.75400
O654        O  0.22858839  0.57715327  0.00961306    -0.75500
Ni655      Ni  0.28714108  0.54583287  0.46958217     1.25400
Ni656      Ni  0.22691998  0.54331313  0.46972509     1.25400
C657        C  0.25604156  0.58895526  0.02449673     0.86800
C658        C  0.24224089  0.99856441  0.41711201     0.86700
C659        C  0.25479621  0.58977149  0.41353016     0.86700
C660        C  0.24199292  0.99554226  0.02863286     0.86900
C661        C  0.34256467  0.84199058  0.07732863    -0.07100
C662        C  0.34727590  0.87263272  0.05613065    -0.18200
C663        C  0.32169999  0.89687597  0.05451063     0.10100
C664        C  0.29084764  0.89046078  0.07468562    -0.07000
C665        C  0.28531529  0.85869834  0.09284049    -0.18300
C666        C  0.31076886  0.83450288  0.09448279     0.10100
S667        S  0.32886566  0.94119667  0.53235928    -0.33200
S668        S  0.30327572  0.79501635  0.12125735    -0.33200
H669        H  0.27266095  0.80391948  0.13956579     0.28100
H670        H  0.29749165  0.94264955  0.51208846     0.28100
H671        H  0.37172703  0.87863662  0.04329953     0.18700
H672        H  0.26154339  0.85366737  0.10797077     0.18700
C673        C  0.12979136  0.85049497  0.06037216    -0.07100
C674        C  0.15965993  0.84474253  0.03883089    -0.18200
C675        C  0.18483000  0.86961896  0.03689588     0.10100
C676        C  0.17886690  0.90088062  0.05582785    -0.07000
C677        C  0.14568431  0.90870985  0.06685086    -0.18300
C678        C  0.12115926  0.88369312  0.06977033     0.10100
S679        S  0.22484604  0.85940307  0.01444911    -0.33200
S680        S  0.07969697  0.89599746  0.59285908    -0.33200
H681        H  0.06281367  0.86766568  0.57719637     0.28100
H682        H  0.21548348  0.82792428  0.99865044     0.28100
H683        H  0.16497636  0.81970256  0.02826386     0.18700
H684        H  0.13996162  0.93347407  0.07827706     0.18700
C685        C  0.15104294  0.74105034  0.06645708    -0.07100
C686        C  0.14300328  0.71033785  0.04783633    -0.18200
C687        C  0.16787729  0.68597756  0.04219602     0.10100
C688        C  0.20092435  0.69217484  0.05655666    -0.07000
C689        C  0.20933705  0.72405193  0.07125355    -0.18300
C690        C  0.18495204  0.74866258  0.07571930     0.10100
S691        S  0.15479945  0.64927227  0.51564911    -0.33200
S692        S  0.19735237  0.78806607  0.09804866    -0.33200
H693        H  0.23095032  0.78667209  0.08487285     0.28100
H694        H  0.18733336  0.64013955  0.50338065     0.28100
H695        H  0.11702939  0.70450408  0.04019481     0.18700
H696        H  0.23437571  0.72849100  0.08373374     0.18700
C697        C  0.31335071  0.68508412  0.05673325    -0.07100
C698        C  0.34558400  0.67615700  0.07125667    -0.18200
C699        C  0.37101688  0.70034571  0.07548960     0.10100
C700        C  0.36364183  0.73420201  0.06608379    -0.07000
C701        C  0.33395353  0.74168236  0.04399467    -0.18300
C702        C  0.30916139  0.71708922  0.03806682     0.10100
S703        S  0.41224482  0.68805272  0.09404934    -0.33200
S704        S  0.27232624  0.73182347  0.51044544    -0.33200
H705        H  0.27769282  0.70479615  0.48379833     0.28100
H706        H  0.40516217  0.65361679  0.09897076     0.28100
H707        H  0.34975721  0.65089238  0.08292883     0.18700
H708        H  0.32886007  0.76719327  0.03387496     0.18700
C709        C  0.22702964  0.96704196  0.26645760    -0.07100
C710        C  0.25671347  0.97594910  0.24520381    -0.18600
C711        C  0.25889334  0.97345264  0.20180661     0.10100
C712        C  0.23063455  0.96185707  0.17884223    -0.07000
C713        C  0.19928647  0.96160712  0.19920642    -0.18300
C714        C  0.19709376  0.96492762  0.24256061     0.10100
S715        S  0.31712140  0.48589584  0.17702114    -0.33200
S716        S  0.15636210  0.97146406  0.26556113    -0.33200
H717        H  0.13691419  0.96748791  0.22916433     0.28100
H718        H  0.30487192  0.50883029  0.14716854     0.28100
H719        H  0.29751295  0.48140826  0.26049910     0.18700
H720        H  0.17626285  0.95960695  0.18140222     0.18700
C721        C  0.42354067  0.80031816  0.27244810    -0.07100
C722        C  0.42816192  0.76915198  0.25334249    -0.18200
C723        C  0.42910697  0.76656219  0.21004742     0.10100
C724        C  0.42253866  0.79543020  0.18509246    -0.07000
C725        C  0.42632510  0.82680984  0.20410017    -0.18300
C726        C  0.42803923  0.82953450  0.24734049     0.10100
S727        S  0.44263900  0.72700327  0.18969743    -0.33200
S728        S  0.43679930  0.87070320  0.26765279    -0.33200
H729        H  0.45179994  0.85916859  0.30484464     0.28100
H730        H  0.45657990  0.74096165  0.15329111     0.28100
H731        H  0.43080600  0.74657330  0.27217171     0.18700
H732        H  0.42664875  0.84951529  0.18518957     0.18700
C733        C  0.34616101  0.85166395  0.37421662    -0.07100
C734        C  0.31837544  0.84430699  0.34866500    -0.18200
C735        C  0.29150675  0.86632649  0.34441386     0.10100
C736        C  0.29164936  0.89627794  0.36760766    -0.07000
C737        C  0.31794593  0.90232741  0.39605082    -0.18300
C738        C  0.34551498  0.88048999  0.39924438     0.10100
S739        S  0.25866597  0.85655829  0.30684472    -0.33200
S740        S  0.38026469  0.89271448  0.43223496    -0.33200
H741        H  0.39331668  0.86048620  0.43887117     0.28100
H742        H  0.26801213  0.82315508  0.29972264     0.28100
H743        H  0.31899435  0.82208398  0.32965019     0.18700
H744        H  0.31810953  0.92528315  0.41374023     0.18700
C745        C  0.08625977  0.78442583  0.27672432    -0.07100
C746        C  0.11685953  0.78934311  0.25577987    -0.18200
C747        C  0.11901208  0.79177434  0.21267762     0.10100
C748        C  0.08983845  0.78697017  0.18753800    -0.07000
C749        C  0.05924996  0.77998001  0.20807967    -0.18300
C750        C  0.05722062  0.77793667  0.25185073     0.10100
S751        S  0.16013365  0.80064018  0.19121103    -0.33200
S752        S  0.01809650  0.76226568  0.27212937    -0.33200
H753        H  0.03376871  0.73955725  0.29994445     0.28100
H754        H  0.17690504  0.80929245  0.22830779     0.28100
H755        H  0.13986500  0.79157616  0.27384091     0.18700
H756        H  0.03669037  0.77457890  0.19048425     0.18700
C757        C  0.18711073  0.89693052  0.39098559    -0.07100
C758        C  0.19988604  0.86453781  0.38758750    -0.18200
C759        C  0.17826683  0.83685199  0.38563452     0.10100
C760        C  0.14371100  0.84103921  0.39375397    -0.07000
C761        C  0.13184802  0.87293612  0.40412146    -0.18300
C762        C  0.15314463  0.90110328  0.40191551     0.10100
S763        S  0.19398580  0.79852662  0.36379678    -0.33200
S764        S  0.13530202  0.94186972  0.41019239    -0.33200
H765        H  0.16596157  0.95789736  0.41982147     0.28100
H766        H  0.22828498  0.80509289  0.37154887     0.28100
H767        H  0.22612049  0.86146266  0.38067596     0.18700
H768        H  0.10525074  0.87642233  0.40965071     0.18700
C769        C  0.25109742  0.63269807  0.17556933    -0.07100
C770        C  0.25228948  0.66393710  0.19566144    -0.18200
C771        C  0.25124522  0.66708577  0.23866609     0.10100
C772        C  0.25061435  0.63791829  0.26440388    -0.07000
C773        C  0.24805211  0.60653041  0.24483604    -0.18300
C774        C  0.24733637  0.60346972  0.20110306     0.10100
S775        S  0.25061919  0.70923696  0.25939313    -0.33200
S776        S  0.23812159  0.56250300  0.18054975    -0.33200
H777        H  0.24073713  0.54392740  0.21789921     0.28100
H778        H  0.24263887  0.72642001  0.22210889     0.28100
H779        H  0.25382218  0.68668732  0.17696335     0.18700
H780        H  0.24513218  0.58412657  0.26347785     0.18700
C781        C  0.19061977  0.68131570  0.38919155    -0.07100
C782        C  0.19526913  0.70943501  0.41437787    -0.18200
C783        C  0.16853663  0.73144166  0.42139666     0.10100
C784        C  0.13753556  0.72625765  0.40028443    -0.07000
C785        C  0.13123297  0.69422307  0.38409104    -0.18300
C786        C  0.15748587  0.67156304  0.37851320     0.10100
S787        S  0.17581150  0.76537409  0.45664194    -0.33200
S788        S  0.14881018  0.63117732  0.35568044    -0.33200
H789        H  0.11358067  0.63424890  0.35406260     0.28100
H790        H  0.14592985  0.75884880  0.47822441     0.28100
H791        H  0.21994598  0.71533282  0.42671701     0.18700
H792        H  0.10659638  0.68862401  0.37117986     0.18700
C793        C  0.30865776  0.69050740  0.38579271    -0.07100
C794        C  0.29984125  0.72204283  0.40070197    -0.18200
C795        C  0.32354219  0.74831376  0.40243685     0.10100
C796        C  0.35620287  0.74316058  0.38653552    -0.07000
C797        C  0.36601689  0.71025257  0.37761847    -0.18300
C798        C  0.34279137  0.68384762  0.37788938     0.10100
S799        S  0.31072825  0.78816113  0.42257368    -0.33200
S800        S  0.35743408  0.64277149  0.36408392    -0.33200
H801        H  0.33087645  0.62502467  0.38305208     0.28100
H802        H  0.27708138  0.77951495  0.43095708     0.28100
H803        H  0.27381717  0.72692726  0.40753164     0.18700
H804        H  0.39145693  0.70552641  0.36745259     0.18700
C805        C  0.25002695  0.64167105  0.81170110     0.85500
C806        C  0.27868887  0.66548432  0.82356767    -0.54700
C807        C  0.28141883  0.67206499  0.86486666     0.08400
C808        C  0.25444729  0.65423628  0.89152226     0.19400
C809        C  0.25589365  0.61010888  0.83936560    -0.55500
C810        C  0.25809787  0.61693125  0.88095630     0.08500
C811        C  0.21827801  0.65686903  0.83016872    -0.55000
C812        C  0.22026447  0.66349113  0.87169410     0.09100
H813        H  0.29575424  0.67634237  0.80077398     0.13600
H814        H  0.25633550  0.65949139  0.92530491    -0.00600
H815        H  0.25611551  0.58453756  0.82841655     0.13900
H816        H  0.19592963  0.66219130  0.81157796     0.13700
C817        C  0.09048136  0.78091632  0.82540788     0.85500
C818        C  0.11105223  0.75104587  0.84211475    -0.54700
C819        C  0.11854299  0.75147552  0.88386599     0.08400
C820        C  0.10492628  0.78273186  0.90538894     0.19400
C821        C  0.05927129  0.78179391  0.85352799    -0.55500
C822        C  0.06706010  0.78214164  0.89512931     0.08500
C823        C  0.11034957  0.81210866  0.83912556    -0.55000
C824        C  0.11869943  0.81274087  0.88008139     0.09100
H825        H  0.11952144  0.73122897  0.82190193     0.13600
H826        H  0.11026759  0.78416301  0.93911263    -0.00600
H827        H  0.03353061  0.78391099  0.84281357     0.13900
H828        H  0.11854884  0.83178085  0.81769130     0.13700
C829        C  0.41314285  0.80786315  0.81818244     0.85500
C830        C  0.39106206  0.83761727  0.82972481    -0.54700
C831        C  0.37879641  0.83652779  0.86930611     0.08400
C832        C  0.39063747  0.80532435  0.89447193     0.19400
C833        C  0.44090967  0.80665054  0.85080124    -0.55500
C834        C  0.42942499  0.80535557  0.89041714     0.08500
C835        C  0.39028698  0.77731449  0.82820422    -0.55000
C836        C  0.37869127  0.77552372  0.86813247     0.09100
H837        H  0.38101031  0.85501836  0.80657149     0.13600
H838        H  0.38210218  0.80433082  0.92721057    -0.00600
H839        H  0.46748233  0.80575472  0.84322275     0.13900
H840        H  0.38303521  0.75885633  0.80520629     0.13700
C841        C  0.22712366  0.95424497  0.81348632     0.85500
C842        C  0.19828249  0.93313202  0.83285604    -0.54700
C843        C  0.20396354  0.92333286  0.87336368     0.08400
C844        C  0.23836896  0.93436193  0.89047364     0.19400
C845        C  0.23312215  0.98293339  0.84359082    -0.55500
C846        C  0.23903204  0.97258902  0.88350770     0.08500
C847        C  0.25776266  0.93121400  0.81941985    -0.55000
C848        C  0.26342065  0.92037848  0.85917218     0.09100
H849        H  0.17769019  0.92238421  0.81513804     0.13600
H850        H  0.24306187  0.92610250  0.92316583    -0.00600
H851        H  0.25659698  0.51344677  0.83064696     0.13900
H852        H  0.27326954  0.92312913  0.79382077     0.13700
C853        C  0.24950582  0.63672406  0.62741129     0.85500
C854        C  0.21892607  0.65549288  0.60943004    -0.54700
C855        C  0.22143584  0.66499419  0.56877452     0.08400
C856        C  0.25405160  0.65304754  0.54812273     0.19400
C857        C  0.25174464  0.60627741  0.59860929    -0.55500
C858        C  0.25465977  0.61490825  0.55742389     0.08500
C859        C  0.28000113  0.65866746  0.61606837    -0.55000
C860        C  0.28281940  0.66736586  0.57504800     0.09100
H861        H  0.19805422  0.66353665  0.62843311     0.13600
H862        H  0.25552171  0.65921016  0.51451937    -0.00600
H863        H  0.24865475  0.58036033  0.60809234     0.13900
H864        H  0.29795122  0.66721945  0.63942075     0.13700
C865        C  0.09280705  0.78705896  0.64037588     0.85500
C866        C  0.10632198  0.82122698  0.62470983    -0.54700
C867        C  0.11232951  0.82295295  0.58288595     0.08400
C868        C  0.10403970  0.79044086  0.56008733     0.19400
C869        C  0.06094122  0.78158125  0.61307615    -0.55500
C870        C  0.06712787  0.78356217  0.57119531     0.08500
C871        C  0.11776521  0.76104428  0.62458812    -0.55000
C872        C  0.12422918  0.76318208  0.58319723     0.09100
H873        H  0.11193082  0.84190690  0.64535609     0.13600
H874        H  0.10890254  0.79188184  0.52614213    -0.00600
H875        H  0.03558899  0.77877726  0.62471670     0.13900
H876        H  0.13056034  0.74316593  0.64498530     0.13700
C877        C  0.41171631  0.80107518  0.64212291     0.85500
C878        C  0.39284910  0.76841908  0.63060334    -0.54700
C879        C  0.38174263  0.76725563  0.59014469     0.08400
C880        C  0.38898845  0.79971252  0.56541661     0.19400
C881        C  0.43905042  0.80550048  0.60960457    -0.55500
C882        C  0.42743214  0.80433476  0.56971480     0.08500
C883        C  0.38556641  0.82823955  0.63160918    -0.55000
C884        C  0.37335577  0.82753735  0.59192647     0.09100
H885        H  0.38654048  0.74891996  0.65307197     0.13600
H886        H  0.37974874  0.79933913  0.53271400    -0.00600
H887        H  0.46567964  0.80694164  0.61745926     0.13900
H888        H  0.37531253  0.84505070  0.65452558     0.13700
C889        C  0.23155337  0.95477157  0.63508718     0.85500
C890        C  0.26132348  0.93105579  0.62835256    -0.54700
C891        C  0.26549873  0.92120708  0.58818640     0.08400
C892        C  0.23856906  0.93550513  0.55791039     0.19400
C893        C  0.23646769  0.98375540  0.60404838    -0.55500
C894        C  0.24007912  0.97377953  0.56394595     0.08500
C895        C  0.20167635  0.93458588  0.61761267    -0.55000
C896        C  0.20477612  0.92469868  0.57727729     0.09100
H897        H  0.27702040  0.92154425  0.65367713     0.13600
H898        H  0.24140173  0.92807623  0.52505546    -0.00600
H899        H  0.25862139  0.51193300  0.60875368     0.13900
H900        H  0.18054776  0.92625744  0.63617946     0.13700
O901        O  0.03183236  0.81184449  0.94012528    -0.75400
O902        O  0.46787421  0.82496826  0.52214726    -0.75400
O903        O  0.03201401  0.81471834  0.52542639    -0.75500
O904        O  0.46966860  0.82542090  0.93876635    -0.75500
O905        O  0.45857247  0.77040170  0.93782595    -0.75500
O906        O  0.02680842  0.75887960  0.52577339    -0.75500
O907        O  0.45618006  0.77006266  0.52262659    -0.75400
O908        O  0.02886978  0.75583776  0.94173518    -0.75500
Ni909      Ni  0.50349893  0.81991827  0.98102366     1.25400
Ni910      Ni  0.49136373  0.76101226  0.98009019     1.25400
C911        C  0.04134829  0.78327979  0.92726711     0.86800
C912        C  0.45109097  0.79974757  0.53582202     0.86700
C913        C  0.04040823  0.78573161  0.53957794     0.86700
C914        C  0.45310181  0.80031369  0.92474123     0.86900
O915        O  0.28403830  0.57981682  0.51118804    -0.75400
O916        O  0.28837795  0.51209304  0.92797584    -0.75400
O917        O  0.28666030  0.58010345  0.92767502    -0.75500
O918        O  0.28686025  0.51172629  0.51224183    -0.75500
O919        O  0.23068777  0.50911301  0.51175733    -0.75500
O920        O  0.23046843  0.57834049  0.92566589    -0.75500
O921        O  0.23215187  0.51066163  0.92610514    -0.75400
O922        O  0.22789423  0.57695984  0.51163350    -0.75500
Ni923      Ni  0.28876125  0.54574398  0.96996153     1.25400
Ni924      Ni  0.22850271  0.54383078  0.96766072     1.25400
C925        C  0.25560398  0.58949063  0.52494855     0.86800
C926        C  0.24097450  0.99658281  0.91707449     0.86700
C927        C  0.25850546  0.59046025  0.91295043     0.86700
C928        C  0.24184301  0.99822333  0.52963695     0.86900
C929        C  0.34297434  0.84730436  0.58075648    -0.07100
C930        C  0.34665386  0.87769939  0.55870673    -0.18200
C931        C  0.32058231  0.90139668  0.55730297     0.10100
C932        C  0.29023959  0.89464644  0.57845946    -0.07000
C933        C  0.28586976  0.86326955  0.59803283    -0.18300
C934        C  0.31185935  0.83969415  0.59968325     0.10100
S935        S  0.33119922  0.93681278  0.03056559    -0.33200
S936        S  0.30600625  0.80109296  0.62901108    -0.33200
H937        H  0.27425540  0.80865910  0.64525034     0.28100
H938        H  0.29928352  0.94063415  0.01217462     0.28100
H939        H  0.37068165  0.88393858  0.54486401     0.18700
H940        H  0.26258483  0.85813383  0.61421934     0.18700
C941        C  0.12936842  0.85219024  0.56322427    -0.07100
C942        C  0.15947533  0.84674829  0.54206313    -0.18200
C943        C  0.18442883  0.87184498  0.54029678     0.10100
C944        C  0.17786836  0.90332349  0.55833808    -0.07000
C945        C  0.14451379  0.91067717  0.56928097    -0.18300
C946        C  0.12039999  0.88527708  0.57278061     0.10100
S947        S  0.22499736  0.86160280  0.51939864    -0.33200
S948        S  0.08037013  0.89489473  0.08913004    -0.33200
H949        H  0.06344186  0.86659639  0.07342120     0.28100
H950        H  0.21685300  0.82905483  0.50605740     0.28100
H951        H  0.16507047  0.82175877  0.53154946     0.18700
H952        H  0.13837126  0.93546267  0.58030676     0.18700
C953        C  0.15127354  0.74292361  0.56506836    -0.07100
C954        C  0.14297325  0.71286392  0.54504092    -0.18200
C955        C  0.16748313  0.68820388  0.53897637     0.10100
C956        C  0.20039952  0.69335575  0.55443612    -0.07000
C957        C  0.20908698  0.72463752  0.57077231    -0.18300
C958        C  0.18516622  0.74965852  0.57542603     0.10100
S959        S  0.15562561  0.64620803  0.02074950    -0.33200
S960        S  0.19793472  0.78838917  0.59931069    -0.33200
H961        H  0.23252423  0.78504922  0.59159318     0.28100
H962        H  0.18795198  0.63795359  0.00686617     0.28100
H963        H  0.11700528  0.70768667  0.53665903     0.18700
H964        H  0.23387648  0.72813224  0.58440281     0.18700
C965        C  0.31175035  0.68880044  0.56135763    -0.07100
C966        C  0.34355260  0.68063361  0.57795749    -0.18200
C967        C  0.36840137  0.70524903  0.58366721     0.10100
C968        C  0.36091570  0.73903481  0.57392423    -0.07000
C969        C  0.33152959  0.74610566  0.55090595    -0.18300
C970        C  0.30748669  0.72101663  0.54321142     0.10100
S971        S  0.40929280  0.69324595  0.60356511    -0.33200
S972        S  0.27255906  0.72860430  0.00830164    -0.33200
H973        H  0.27680125  0.70219798  0.98038061     0.28100
H974        H  0.40359218  0.65837947  0.60386401     0.28100
H975        H  0.34785985  0.65539150  0.58963423     0.18700
H976        H  0.32640537  0.77153149  0.54046616     0.18700
C977        C  0.22397685  0.96611106  0.76800686    -0.07100
C978        C  0.25371259  0.97632802  0.74775807    -0.18600
C979        C  0.25596759  0.97650474  0.70428461     0.10100
C980        C  0.22790771  0.96583837  0.68041949    -0.07000
C981        C  0.19642518  0.96470156  0.70041273    -0.18300
C982        C  0.19403959  0.96543157  0.74393210     0.10100
S983        S  0.31802780  0.48586810  0.67445203    -0.33200
S984        S  0.15309807  0.97020384  0.76709637    -0.33200
H985        H  0.13393992  0.96937017  0.73011235     0.28100
H986        H  0.33523330  0.49768889  0.70983210     0.28100
H987        H  0.30014834  0.48031290  0.76092755     0.18700
H988        H  0.17351662  0.96363465  0.68223036     0.18700
C989        C  0.42625886  0.80805050  0.77367666    -0.07100
C990        C  0.43286685  0.77718077  0.75482419    -0.18200
C991        C  0.43342368  0.77446371  0.71159307     0.10100
C992        C  0.42527617  0.80293631  0.68670709    -0.07000
C993        C  0.42812042  0.83454485  0.70547782    -0.18300
C994        C  0.42958642  0.83741230  0.74869840     0.10100
S995        S  0.44663316  0.73485710  0.69108233    -0.33200
S996        S  0.43764046  0.87863556  0.76920992    -0.33200
H997        H  0.45233103  0.86704827  0.80662635     0.28100
H998        H  0.45883521  0.74832181  0.65350672     0.28100
H999        H  0.43618433  0.75475390  0.77380017     0.18700
H1000       H  0.42783979  0.85720773  0.68650276     0.18700
C1001       C  0.34648601  0.85378193  0.87637372    -0.07100
C1002       C  0.31969843  0.84501500  0.84986364    -0.18200
C1003       C  0.29134128  0.86515637  0.84562844     0.10100
C1004       C  0.28935756  0.89488224  0.86898062    -0.07000
C1005       C  0.31447030  0.90193707  0.89869749    -0.18300
C1006       C  0.34319820  0.88169560  0.90253156     0.10100
S1007       S  0.25872399  0.85308676  0.80887736    -0.33200
S1008       S  0.37577675  0.89449158  0.93841267    -0.33200
H1009       H  0.39088703  0.86295608  0.94329664     0.28100
H1010       H  0.27337720  0.82304680  0.79574901     0.28100
H1011       H  0.32208739  0.82311151  0.83055679     0.18700
H1012       H  0.31274240  0.92445320  0.91706157     0.18700
C1013       C  0.08781591  0.77996154  0.77740593    -0.07100
C1014       C  0.11808854  0.78635643  0.75635947    -0.18200
C1015       C  0.11980769  0.78982380  0.71327241     0.10100
C1016       C  0.09048454  0.78517156  0.68827255    -0.07000
C1017       C  0.06041583  0.77626426  0.70887303    -0.18300
C1018       C  0.05895487  0.77269948  0.75257775     0.10100
S1019       S  0.16039056  0.80081574  0.69174766    -0.33200
S1020       S  0.02122059  0.75377726  0.77268770    -0.33200
H1021       H  0.03855474  0.73241777  0.80063234     0.28100
H1022       H  0.18037404  0.79301126  0.72687559     0.28100
H1023       H  0.14100974  0.78960109  0.77434028     0.18700
H1024       H  0.03798744  0.77033491  0.69125471     0.18700
C1025       C  0.18414837  0.89569985  0.89231427    -0.07100
C1026       C  0.19787697  0.86362667  0.88988317    -0.18200
C1027       C  0.17704253  0.83539209  0.88786944     0.10100
C1028       C  0.14223496  0.83875502  0.89495919    -0.07000
C1029       C  0.12926729  0.87046114  0.90416488    -0.18300
C1030       C  0.14980965  0.89915579  0.90189322     0.10100
S1031       S  0.19416746  0.79747372  0.86660700    -0.33200
S1032       S  0.13052204  0.93957235  0.90786548    -0.33200
H1033       H  0.16043369  0.95684840  0.91780047     0.28100
H1034       H  0.22799647  0.80447745  0.87671409     0.28100
H1035       H  0.22426352  0.86114525  0.88320426     0.18700
H1036       H  0.10244964  0.87330993  0.90864973     0.18700
C1037       C  0.24767571  0.63365617  0.67526265    -0.07100
C1038       C  0.23997037  0.66373610  0.69563832    -0.18200
C1039       C  0.23993282  0.66656954  0.73873048     0.10100
C1040       C  0.24772352  0.63826025  0.76419809    -0.07000
C1041       C  0.25651357  0.60827739  0.74429884    -0.18300
C1042       C  0.25764114  0.60583819  0.70055199     0.10100
S1043       S  0.23220468  0.70786913  0.75967156    -0.33200
S1044       S  0.27665082  0.56886716  0.67942914    -0.33200
H1045       H  0.27863557  0.54983012  0.71646872     0.28100
H1046       H  0.21640274  0.72183069  0.72415513     0.28100
H1047       H  0.23549695  0.68625691  0.67727887     0.18700
H1048       H  0.26487118  0.58713313  0.76270137     0.18700
C1049       C  0.19144871  0.67855449  0.89363018    -0.07100
C1050       C  0.19646269  0.70743824  0.91734371    -0.18200
C1051       C  0.16971516  0.72945937  0.92406694     0.10100
C1052       C  0.13862065  0.72372531  0.90345107    -0.07000
C1053       C  0.13203398  0.69123604  0.88901071    -0.18300
C1054       C  0.15815734  0.66826618  0.88459739     0.10100
S1055       S  0.17685732  0.76392327  0.95852823    -0.33200
S1056       S  0.14922417  0.62693954  0.86467436    -0.33200
H1057       H  0.11396208  0.62981551  0.86429690     0.28100
H1058       H  0.14692565  0.75768898  0.98011093     0.28100
H1059       H  0.22137995  0.71394965  0.92844286     0.18700
H1060       H  0.10732525  0.68535958  0.87650657     0.18700
C1061       C  0.30896093  0.69409505  0.88024654    -0.07100
C1062       C  0.30091193  0.72477132  0.89827471    -0.18200
C1063       C  0.32469701  0.75105969  0.90039336     0.10100
C1064       C  0.35664054  0.74693999  0.88185754    -0.07000
C1065       C  0.36572963  0.71473925  0.86895194    -0.18300
C1066       C  0.34256416  0.68830815  0.86861803     0.10100
S1067       S  0.31291723  0.78953806  0.92503085    -0.33200
S1068       S  0.35669216  0.64837515  0.84988078    -0.33200
H1069       H  0.33235371  0.62908960  0.87100738     0.28100
H1070       H  0.27932614  0.78079168  0.93357010     0.28100
H1071       H  0.27533646  0.72897221  0.90785439     0.18700
H1072       H  0.39064931  0.71061212  0.85667151     0.18700
C1073       C  0.75099570  0.13057197  0.31137327     0.85500
C1074       C  0.78185139  0.14964381  0.32766191    -0.54700
C1075       C  0.78152067  0.15612206  0.36916517     0.08400
C1076       C  0.75023249  0.14225151  0.39158880     0.19400
C1077       C  0.75038319  0.09837147  0.33901282    -0.55500
C1078       C  0.75007739  0.10484484  0.38079696     0.08500
C1079       C  0.72053316  0.15049766  0.32593855    -0.55000
C1080       C  0.71954500  0.15623006  0.36766370     0.09100
H1081       H  0.80236774  0.15773398  0.30772667     0.13600
H1082       H  0.75000177  0.14716122  0.42552289    -0.00600
H1083       H  0.75057681  0.07289301  0.32778568     0.13900
H1084       H  0.70106127  0.15932720  0.30458137     0.13700
C1085       C  0.59679777  0.28576629  0.32237411     0.85500
C1086       C  0.61446881  0.25377155  0.33768237    -0.54700
C1087       C  0.62209348  0.25219874  0.37935933     0.08400
C1088       C  0.61144388  0.28418336  0.40232363     0.19400
C1089       C  0.56583827  0.28891159  0.35055689    -0.55500
C1090       C  0.57349510  0.28749691  0.39218693     0.08500
C1091       C  0.61954865  0.31460321  0.33716769    -0.55000
C1092       C  0.62808323  0.31352729  0.37807860     0.09100
H1093       H  0.62116281  0.23403672  0.31634276     0.13600
H1094       H  0.61685698  0.28433395  0.43606322    -0.00600
H1095       H  0.54037360  0.29321435  0.33974550     0.13900
H1096       H  0.62915181  0.33416652  0.31650074     0.13700
C1097       C  0.91565877  0.27662335  0.31544334     0.85500
C1098       C  0.89234139  0.30646724  0.32207057    -0.54700
C1099       C  0.88171080  0.31033746  0.36188310     0.08400
C1100       C  0.89516817  0.28331848  0.39229704     0.19400
C1101       C  0.94423723  0.28045917  0.34698839    -0.55500
C1102       C  0.93369434  0.28425125  0.38678593     0.08500
C1103       C  0.89462771  0.24680400  0.33231216    -0.55000
C1104       C  0.88385834  0.24998124  0.37249680     0.09100
H1105       H  0.88268067  0.32189466  0.29657492     0.13600
H1106       H  0.88717541  0.28636299  0.42498972    -0.00600
H1107       H  0.97066033  0.27970510  0.33873992     0.13900
H1108       H  0.88669907  0.22576529  0.31349941     0.13700
C1109       C  0.74788511  0.44732922  0.31164111     0.85500
C1110       C  0.71753081  0.42782552  0.33017978    -0.54700
C1111       C  0.72174595  0.41782441  0.37087258     0.08400
C1112       C  0.75636087  0.42714396  0.38905386     0.19400
C1113       C  0.75484773  0.47581403  0.34168766    -0.55500
C1114       C  0.75928641  0.46549201  0.38192510     0.08500
C1115       C  0.77708749  0.42280961  0.31867197    -0.55000
C1116       C  0.78114093  0.41152807  0.35847681     0.09100
H1117       H  0.69655735  0.41851056  0.31187404     0.13600
H1118       H  0.75994313  0.41870354  0.42187395    -0.00600
H1119       H  0.73709475  0.00293696  0.33319148     0.13900
H1120       H  0.79203812  0.41307833  0.29345708     0.13700
C1121       C  0.75007433  0.12652982  0.12624649     0.85500
C1122       C  0.71885770  0.14594234  0.11161802    -0.54700
C1123       C  0.71827503  0.15481731  0.07053783     0.08400
C1124       C  0.74876290  0.14207751  0.04638969     0.19400
C1125       C  0.75114281  0.09590439  0.09759793    -0.55500
C1126       C  0.74976323  0.10416170  0.05622149     0.08500
C1127       C  0.78014390  0.14786560  0.11084319    -0.55000
C1128       C  0.77972488  0.15621715  0.06940610     0.09100
H1129       H  0.70052881  0.15554710  0.13328317     0.13600
H1130       H  0.74775913  0.14780203  0.01259932    -0.00600
H1131       H  0.75436118  0.07013602  0.10724447     0.13900
H1132       H  0.80050959  0.15565387  0.13142628     0.13700
C1133       C  0.59912503  0.28949438  0.13744023     0.85500
C1134       C  0.61468527  0.32225255  0.12036723    -0.54700
C1135       C  0.62108062  0.32239170  0.07862725     0.08400
C1136       C  0.61060487  0.28977961  0.05713129     0.19400
C1137       C  0.56704818  0.28520462  0.11038910    -0.55500
C1138       C  0.57330862  0.28553431  0.06854768     0.08500
C1139       C  0.62239704  0.26152298  0.12300932    -0.55000
C1140       C  0.62887976  0.26187272  0.08156553     0.09100
H1141       H  0.62155675  0.34309258  0.14019897     0.13600
H1142       H  0.61555839  0.28989301  0.02318713    -0.00600
H1143       H  0.54160598  0.28391200  0.12207543     0.13900
H1144       H  0.63396300  0.24346840  0.14429209     0.13700
C1145       C  0.91534237  0.27265878  0.13684360     0.85500
C1146       C  0.89447201  0.24295142  0.12018743    -0.54700
C1147       C  0.88496744  0.24597616  0.07925574     0.08400
C1148       C  0.89557708  0.27957428  0.05906517     0.19400
C1149       C  0.94421690  0.27733759  0.10626225    -0.55500
C1150       C  0.93402570  0.28087962  0.06585922     0.08500
C1151       C  0.89186415  0.30262856  0.12844573    -0.55000
C1152       C  0.88131453  0.30625123  0.08820830     0.09100
H1153       H  0.88517272  0.22256697  0.13955907     0.13600
H1154       H  0.88738041  0.28253915  0.02609102    -0.00600
H1155       H  0.97054458  0.27744009  0.11570386     0.13900
H1156       H  0.88244981  0.31854419  0.15286648     0.13700
C1157       C  0.75210284  0.44522269  0.13306769     0.85500
C1158       C  0.78129888  0.42108205  0.12525886    -0.54700
C1159       C  0.78397060  0.41076069  0.08510011     0.08400
C1160       C  0.75639450  0.42513874  0.05586466     0.19400
C1161       C  0.75614236  0.47380003  0.10138101    -0.55500
C1162       C  0.75858681  0.46341149  0.06137245     0.08500
C1163       C  0.72135560  0.42519310  0.11726266    -0.55000
C1164       C  0.72305350  0.41506217  0.07681864     0.09100
H1165       H  0.79719697  0.41098872  0.15002593     0.13600
H1166       H  0.75833538  0.41741190  0.02297628    -0.00600
H1167       H  0.73938548  0.00097779  0.10895527     0.13900
H1168       H  0.70027995  0.41802166  0.13666464     0.13700
O1169       O  0.53712246  0.31691854  0.43701790    -0.75400
O1170       O  0.96671969  0.31304449  0.01870801    -0.75400
O1171       O  0.53643594  0.31520451  0.02334489    -0.75500
O1172       O  0.96617562  0.31580786  0.43470357    -0.75500
O1173       O  0.97187254  0.26007637  0.43475361    -0.75500
O1174       O  0.53411586  0.25918486  0.02346480    -0.75500
O1175       O  0.97243104  0.25731480  0.01880470    -0.75400
O1176       O  0.53499740  0.26091709  0.43840432    -0.75500
Ni1177     Ni  0.00004016  0.32078882  0.47707104     1.25400
Ni1178     Ni  0.00555975  0.26099107  0.47745116     1.25400
C1179       C  0.54736093  0.28851309  0.42422863     0.86800
C1180       C  0.95852687  0.28387505  0.03235498     0.86700
C1181       C  0.54648775  0.28663774  0.03710897     0.86700
C1182       C  0.95799977  0.28688117  0.42090222     0.86900
O1183       O  0.77648141  0.06622165  0.01135927    -0.75400
O1184       O  0.77322446  0.99836573  0.42946064    -0.75400
O1185       O  0.77673702  0.06626329  0.42710018    -0.75500
O1186       O  0.77299036  0.99824945  0.01325341    -0.75500
O1187       O  0.71685560  0.00063819  0.01158717    -0.75500
O1188       O  0.72060797  0.06897317  0.42699702    -0.75500
O1189       O  0.71709611  0.00139389  0.42927340    -0.75400
O1190       O  0.72032240  0.06855773  0.01019691    -0.75500
Ni1191     Ni  0.77727681  0.03266047  0.47047079     1.25400
Ni1192     Ni  0.71710729  0.03564286  0.47012878     1.25400
C1193       C  0.74886768  0.07855234  0.02415191     0.86800
C1194       C  0.75885790  0.48993827  0.41531815     0.86700
C1195       C  0.74913399  0.07853097  0.41294756     0.86700
C1196       C  0.75860511  0.48760858  0.02690329     0.86900
C1197       C  0.85386728  0.32995649  0.07748973    -0.07100
C1198       C  0.86155203  0.36060984  0.05767894    -0.18200
C1199       C  0.83812993  0.38692808  0.05639404     0.10100
C1200       C  0.80640130  0.38241003  0.07519457    -0.07000
C1201       C  0.79815116  0.35103512  0.09261701    -0.18300
C1202       C  0.82148576  0.32490683  0.09418206     0.10100
S1203       S  0.84239994  0.42072132  0.52283440    -0.33200
S1204       S  0.81047456  0.28595720  0.12026434    -0.33200
H1205       H  0.78095122  0.29745954  0.13900398     0.28100
H1206       H  0.82798760  0.44367068  0.55011641     0.28100
H1207       H  0.88658478  0.36477807  0.04550851     0.18700
H1208       H  0.77384644  0.34769831  0.10712039     0.18700
C1209       C  0.64084599  0.34984161  0.05876922    -0.07100
C1210       C  0.67094106  0.34172994  0.03894299    -0.18200
C1211       C  0.69818930  0.36444913  0.03870172     0.10100
C1212       C  0.69441746  0.39591861  0.05801130    -0.07000
C1213       C  0.66179734  0.40625648  0.06832463    -0.18300
C1214       C  0.63498549  0.38355176  0.06879557     0.10100
S1215       S  0.73779633  0.35122706  0.01772640    -0.33200
S1216       S  0.59199000  0.39817514  0.58137068    -0.33200
H1217       H  0.57401340  0.37050828  0.56567239     0.28100
H1218       H  0.72606786  0.32119408  0.00004705     0.28100
H1219       H  0.67449000  0.31638475  0.02827914     0.18700
H1220       H  0.65788788  0.43125055  0.08017478     0.18700
C1221       C  0.65413831  0.23886640  0.06464653    -0.07100
C1222       C  0.64348198  0.20917054  0.04535120    -0.18200
C1223       C  0.66569176  0.18213433  0.04114005     0.10100
C1224       C  0.69842525  0.18455049  0.05817228    -0.07000
C1225       C  0.70953116  0.21515060  0.07422126    -0.18300
C1226       C  0.68818348  0.24257286  0.07630233     0.10100
S1227       S  0.65013965  0.14433558  0.52030140    -0.33200
S1228       S  0.70426592  0.28094249  0.09793491    -0.33200
H1229       H  0.73820727  0.27442089  0.08937075     0.28100
H1230       H  0.68200579  0.13315729  0.50813315     0.28100
H1231       H  0.61738771  0.20630670  0.03592405     0.18700
H1232       H  0.73439336  0.21678566  0.08823526     0.18700
C1233       C  0.80856926  0.17529320  0.05103378    -0.07100
C1234       C  0.84088835  0.16377311  0.06166661    -0.18200
C1235       C  0.86798508  0.18614671  0.06545894     0.10100
C1236       C  0.86239284  0.22079187  0.05960310    -0.07000
C1237       C  0.83212923  0.23126225  0.04095295    -0.18300
C1238       C  0.80544603  0.20851296  0.03539238     0.10100
S1239       S  0.90909361  0.17061070  0.07999827    -0.33200
S1240       S  0.76674383  0.22678586  0.51250498    -0.33200
H1241       H  0.76184448  0.19898082  0.48684291     0.28100
H1242       H  0.90091931  0.13627726  0.07804765     0.28100
H1243       H  0.84404408  0.13781771  0.07125204     0.18700
H1244       H  0.82836802  0.25754090  0.03331733     0.18700
C1245       C  0.74597658  0.45883201  0.26591804    -0.07100
C1246       C  0.77648998  0.46591093  0.24556608    -0.18600
C1247       C  0.77875427  0.46544628  0.20225220     0.10100
C1248       C  0.74986460  0.45706314  0.17825222    -0.07000
C1249       C  0.71843012  0.45882055  0.19818807    -0.18300
C1250       C  0.71613195  0.46042088  0.24170190     0.10100
S1251       S  0.80341703  0.97618120  0.18107089    -0.33200
S1252       S  0.67582430  0.46904677  0.26471253    -0.33200
H1253       H  0.65661678  0.46892501  0.22774698     0.28100
H1254       H  0.79192225  0.99309524  0.14526212     0.28100
H1255       H  0.78198166  0.97318497  0.26372928     0.18700
H1256       H  0.69554017  0.45914650  0.17985791     0.18700
C1257       C  0.92729765  0.27413853  0.27020015    -0.07100
C1258       C  0.92742472  0.24290860  0.25021597    -0.18200
C1259       C  0.92852085  0.24080198  0.20681935     0.10100
C1260       C  0.92713246  0.27064678  0.18240253    -0.07000
C1261       C  0.93506604  0.30086044  0.20243956    -0.18300
C1262       C  0.93588266  0.30289832  0.24578549     0.10100
S1263       S  0.93597290  0.19986421  0.18574655    -0.33200
S1264       S  0.94596240  0.34351536  0.26694081    -0.33200
H1265       H  0.96463339  0.33122927  0.30096759     0.28100
H1266       H  0.95230724  0.21205178  0.14993342     0.28100
H1267       H  0.92707302  0.21982443  0.26825378     0.18700
H1268       H  0.93865849  0.32362071  0.18416276     0.18700
C1269       C  0.85332602  0.33310270  0.36994263    -0.07100
C1270       C  0.82442109  0.32861326  0.34534625    -0.18200
C1271       C  0.79927386  0.35270628  0.34341842     0.10100
C1272       C  0.80269073  0.38206942  0.36744127    -0.07000
C1273       C  0.82961526  0.38479648  0.39583289    -0.18300
C1274       C  0.85530610  0.36068920  0.39695538     0.10100
S1275       S  0.76412469  0.34622790  0.30799413    -0.33200
S1276       S  0.89080424  0.36767793  0.43102358    -0.33200
H1277       H  0.91503059  0.35609482  0.40321389     0.28100
H1278       H  0.77038269  0.31230373  0.29957074     0.28100
H1279       H  0.82257117  0.30682682  0.32564818     0.18700
H1280       H  0.83202076  0.40701541  0.41470981     0.18700
C1281       C  0.59381608  0.28585879  0.27441760    -0.07100
C1282       C  0.62424809  0.29098599  0.25319921    -0.18200
C1283       C  0.62604364  0.29372015  0.21010233     0.10100
C1284       C  0.59666045  0.28911856  0.18525763    -0.07000
C1285       C  0.56632022  0.28159546  0.20603882    -0.18300
C1286       C  0.56470627  0.27901434  0.24979925     0.10100
S1287       S  0.66713786  0.30216819  0.18836417    -0.33200
S1288       S  0.52621516  0.26188866  0.27035747    -0.33200
H1289       H  0.54270031  0.24009314  0.29857323     0.28100
H1290       H  0.68273665  0.31441524  0.22463124     0.28100
H1291       H  0.64748295  0.29276114  0.27088826     0.18700
H1292       H  0.54378429  0.27579966  0.18857026     0.18700
C1293       C  0.69919242  0.39215993  0.38993036    -0.07100
C1294       C  0.71062655  0.35905401  0.39096745    -0.18200
C1295       C  0.68787057  0.33214544  0.38937216     0.10100
C1296       C  0.65307733  0.33813428  0.39377994    -0.07000
C1297       C  0.64220194  0.37118198  0.39978838    -0.18300
C1298       C  0.66479702  0.39829926  0.39680077     0.10100
S1299       S  0.70305391  0.29223839  0.37173583    -0.33200
S1300       S  0.64809607  0.44015724  0.39854516    -0.33200
H1301       H  0.67853732  0.45571446  0.41012618     0.28100
H1302       H  0.73729220  0.29803792  0.38077457     0.28100
H1303       H  0.73707030  0.35444932  0.38683302     0.18700
H1304       H  0.61551457  0.37616498  0.40211578     0.18700
C1305       C  0.75029017  0.12362189  0.17438396    -0.07100
C1306       C  0.75349082  0.15450176  0.19499079    -0.18200
C1307       C  0.75352422  0.15717918  0.23820222     0.10100
C1308       C  0.75100849  0.12784337  0.26357246    -0.07000
C1309       C  0.74662097  0.09688218  0.24343909    -0.18300
C1310       C  0.74494593  0.09442456  0.19963319     0.10100
S1311       S  0.75552791  0.19904709  0.25971571    -0.33200
S1312       S  0.73200110  0.05453236  0.17866915    -0.33200
H1313       H  0.72397877  0.03803574  0.21625745     0.28100
H1314       H  0.76435565  0.21655657  0.22310395     0.28100
H1315       H  0.75512533  0.17737291  0.17656290     0.18700
H1316       H  0.74294223  0.07439425  0.26173065     0.18700
C1317       C  0.69060318  0.17387112  0.38646691    -0.07100
C1318       C  0.69620755  0.20102021  0.41302247    -0.18200
C1319       C  0.67059709  0.22438892  0.41999573     0.10100
C1320       C  0.64017339  0.22205776  0.39689276    -0.07000
C1321       C  0.63241549  0.19098652  0.37883242    -0.18300
C1322       C  0.65724025  0.16666882  0.37380640     0.10100
S1323       S  0.67797570  0.25560568  0.45886488    -0.33200
S1324       S  0.64646499  0.12737387  0.34942673    -0.33200
H1325       H  0.61144765  0.13229624  0.34816336     0.28100
H1326       H  0.64642784  0.25002995  0.47704599     0.28100
H1327       H  0.72079369  0.20497082  0.42678942     0.18700
H1328       H  0.60793581  0.18735666  0.36444385     0.18700
C1329       C  0.80943189  0.17525838  0.38861052    -0.07100
C1330       C  0.80277984  0.20727912  0.40372773    -0.18200
C1331       C  0.82834297  0.23177905  0.40586466     0.10100
C1332       C  0.86081954  0.22408605  0.39095114    -0.07000
C1333       C  0.86836836  0.19035135  0.38321220    -0.18300
C1334       C  0.84312075  0.16588622  0.38219837     0.10100
S1335       S  0.81807460  0.27279174  0.42474013    -0.33200
S1336       S  0.85477321  0.12392759  0.36801728    -0.33200
H1337       H  0.82636598  0.10815433  0.38540758     0.28100
H1338       H  0.78359872  0.26693968  0.43134272     0.28100
H1339       H  0.77705846  0.21407620  0.40987335     0.18700
H1340       H  0.89355806  0.18362492  0.37389863     0.18700
C1341       C  0.75279844  0.13106733  0.81200914     0.85500
C1342       C  0.78353087  0.14969128  0.82924719    -0.54700
C1343       C  0.78249906  0.15609945  0.87072065     0.08400
C1344       C  0.75064065  0.14248269  0.89225031     0.19400
C1345       C  0.75134420  0.09878739  0.83941392    -0.55500
C1346       C  0.75034632  0.10502835  0.88120719     0.08500
C1347       C  0.72230239  0.15132535  0.82578494    -0.55000
C1348       C  0.72054484  0.15700263  0.86748073     0.09100
H1349       H  0.80447104  0.15765542  0.80991364     0.13600
H1350       H  0.74985887  0.14730749  0.92617758    -0.00600
H1351       H  0.75168973  0.07335420  0.82804859     0.13900
H1352       H  0.70343299  0.16055475  0.80386132     0.13700
C1353       C  0.59486386  0.28819446  0.82262911     0.85500
C1354       C  0.61332201  0.25623682  0.83684456    -0.54700
C1355       C  0.62196129  0.25424057  0.87821840     0.08400
C1356       C  0.61120481  0.28571966  0.90212295     0.19400
C1357       C  0.56447000  0.29039838  0.85181366    -0.55500
C1358       C  0.57297318  0.28857973  0.89317011     0.08500
C1359       C  0.61741707  0.31718496  0.83735692    -0.55000
C1360       C  0.62697453  0.31557172  0.87790717     0.09100
H1361       H  0.61993907  0.23692627  0.81488616     0.13600
H1362       H  0.61726260  0.28552570  0.93570127    -0.00600
H1363       H  0.53873066  0.29446102  0.84206800     0.13900
H1364       H  0.62666910  0.33689150  0.81664152     0.13700
C1365       C  0.91885859  0.27411442  0.81380089     0.85500
C1366       C  0.89630912  0.30474945  0.81911574    -0.54700
C1367       C  0.88490411  0.30951158  0.85837446     0.08400
C1368       C  0.89702873  0.28255465  0.88977642     0.19400
C1369       C  0.94692637  0.27756789  0.84617356    -0.55500
C1370       C  0.93567195  0.28220144  0.88556703     0.08500
C1371       C  0.89670986  0.24507133  0.83067131    -0.55000
C1372       C  0.88524462  0.24922961  0.87041585     0.09100
H1373       H  0.88768191  0.32014118  0.79301741     0.13600
H1374       H  0.88844115  0.28627291  0.92211068    -0.00600
H1375       H  0.97347090  0.27584638  0.83884998     0.13900
H1376       H  0.88884570  0.22375491  0.81230657     0.13700
C1377       C  0.74898272  0.44752339  0.81003870     0.85500
C1378       C  0.71909133  0.42755692  0.82879081    -0.54700
C1379       C  0.72399707  0.41686519  0.86901398     0.08400
C1380       C  0.75889778  0.42576934  0.88659654     0.19400
C1381       C  0.75640456  0.47539745  0.84087968    -0.55500
C1382       C  0.76148960  0.46426073  0.88075581     0.08500
C1383       C  0.77842179  0.42302567  0.81543883    -0.55000
C1384       C  0.78322410  0.41087499  0.85479698     0.09100
H1385       H  0.69771042  0.41866098  0.81088751     0.13600
H1386       H  0.76301107  0.41661200  0.91903477    -0.00600
H1387       H  0.73811056  0.99861199  0.83160989     0.13900
H1388       H  0.79308243  0.41412113  0.78949919     0.13700
C1389       C  0.75223952  0.12762740  0.62687569     0.85500
C1390       C  0.72030440  0.14640609  0.61349774    -0.54700
C1391       C  0.71852635  0.15541670  0.57251374     0.08400
C1392       C  0.74867362  0.14330507  0.54713764     0.19400
C1393       C  0.75334182  0.09710175  0.59803307    -0.55500
C1394       C  0.75084305  0.10539187  0.55672668     0.08500
C1395       C  0.78146922  0.14963033  0.61047367    -0.55000
C1396       C  0.77985998  0.15798297  0.56906850     0.09100
H1397       H  0.70235526  0.15559893  0.63591689     0.13600
H1398       H  0.74679448  0.14909989  0.51340129    -0.00600
H1399       H  0.75746181  0.07141411  0.60747511     0.13900
H1400       H  0.80228124  0.15763145  0.63023473     0.13700
C1401       C  0.59749049  0.29159428  0.63763608     0.85500
C1402       C  0.61369878  0.32377349  0.61982093    -0.54700
C1403       C  0.62037704  0.32292857  0.57819756     0.08400
C1404       C  0.60994810  0.28998966  0.55761768     0.19400
C1405       C  0.56566569  0.28720056  0.61006406    -0.55500
C1406       C  0.57252187  0.28657826  0.56833236     0.08500
C1407       C  0.62049639  0.26292889  0.62451333    -0.55000
C1408       C  0.62756019  0.26235047  0.58325775     0.09100
H1409       H  0.62043731  0.34506816  0.63897719     0.13600
H1410       H  0.61532748  0.28936410  0.52380064    -0.00600
H1411       H  0.54006297  0.28651018  0.62126960     0.13900
H1412       H  0.63156253  0.24515159  0.64655618     0.13700
C1413       C  0.91505576  0.27201876  0.63590233     0.85500
C1414       C  0.89520724  0.24219471  0.61783643    -0.54700
C1415       C  0.88534047  0.24631715  0.57717850     0.08400
C1416       C  0.89464318  0.28087252  0.55866352     0.19400
C1417       C  0.94351191  0.27881438  0.60543132    -0.55500
C1418       C  0.93303537  0.28338862  0.56538040     0.08500
C1419       C  0.89041611  0.30138333  0.62927653    -0.55000
C1420       C  0.87930901  0.30586169  0.58922642     0.09100
H1421       H  0.88627292  0.22112321  0.63629238     0.13600
H1422       H  0.88624263  0.28455633  0.52586393    -0.00600
H1423       H  0.96990798  0.27904304  0.61459516     0.13900
H1424       H  0.88088245  0.31620083  0.65466812     0.13700
C1425       C  0.74865481  0.44523340  0.63173543     0.85500
C1426       C  0.77661506  0.41960697  0.62498173    -0.54700
C1427       C  0.78003286  0.40931690  0.58498410     0.08400
C1428       C  0.75421207  0.42548724  0.55453334     0.19400
C1429       C  0.75522424  0.47379765  0.60070059    -0.55500
C1430       C  0.75775666  0.46373429  0.56055502     0.08500
C1431       C  0.71729940  0.42707473  0.61432748    -0.55000
C1432       C  0.71988870  0.41680419  0.57392597     0.09100
H1433       H  0.79153592  0.40900931  0.65038047     0.13600
H1434       H  0.75677018  0.41788489  0.52167217    -0.00600
H1435       H  0.74376620  0.00006029  0.61151716     0.13900
H1436       H  0.69544095  0.42066348  0.63272550     0.13700
O1437       O  0.53664984  0.31687266  0.93920509    -0.75400
O1438       O  0.96616696  0.31535591  0.51853433    -0.75400
O1439       O  0.53708759  0.31630582  0.52136762    -0.75500
O1440       O  0.96691133  0.31374909  0.93469144    -0.75500
O1441       O  0.97326154  0.25810178  0.93455647    -0.75500
O1442       O  0.53381309  0.26032274  0.52270822    -0.75500
O1443       O  0.97111548  0.25953662  0.51857748    -0.75400
O1444       O  0.53520572  0.26085730  0.93929942    -0.75500
Ni1445     Ni  0.00055438  0.31904270  0.97724666     1.25400
Ni1446     Ni  0.00685979  0.25932860  0.97747277     1.25400
C1447       C  0.54724470  0.28879763  0.92576652     0.86800
C1448       C  0.95749389  0.28627361  0.53197641     0.86700
C1449       C  0.54635179  0.28775849  0.53610638     0.86700
C1450       C  0.95930651  0.28481692  0.92047913     0.86900
O1451       O  0.77723504  0.06720167  0.51152597    -0.75400
O1452       O  0.77363496  0.99768569  0.92937241    -0.75400
O1453       O  0.77669714  0.06577805  0.92713121    -0.75500
O1454       O  0.77365476  0.99923048  0.51369379    -0.75500
O1455       O  0.71753513  0.00206188  0.51324042    -0.75500
O1456       O  0.72057166  0.06839383  0.92633118    -0.75500
O1457       O  0.71749669  0.00056260  0.92763797    -0.75400
O1458       O  0.72110360  0.06992959  0.51090518    -0.75500
Ni1459     Ni  0.77699654  0.03189291  0.97028882     1.25400
Ni1460     Ni  0.71681114  0.03458308  0.96889031     1.25400
C1461       C  0.74976776  0.07977911  0.52456527     0.86800
C1462       C  0.76073108  0.48799568  0.91504329     0.86700
C1463       C  0.74919177  0.07829438  0.91294317     0.86700
C1464       C  0.75750055  0.48852896  0.52648417     0.86900
C1465       C  0.85082291  0.32878691  0.57931774    -0.07100
C1466       C  0.85608698  0.35751543  0.55436979    -0.18200
C1467       C  0.83229438  0.38358349  0.55285092     0.10100
C1468       C  0.80243665  0.38052798  0.57617032    -0.07000
C1469       C  0.79589842  0.35027601  0.59757537    -0.18300
C1470       C  0.81960726  0.32445082  0.59934416     0.10100
S1471       S  0.85137134  0.42655447  0.03431028    -0.33200
S1472       S  0.81015569  0.28634461  0.62824816    -0.33200
H1473       H  0.78031951  0.29757033  0.64650842     0.28100
H1474       H  0.81927355  0.43620680  0.02033232     0.28100
H1475       H  0.87980218  0.36071885  0.53841689     0.18700
H1476       H  0.77259155  0.34758827  0.61452377     0.18700
C1477       C  0.63954996  0.35010663  0.55719095    -0.07100
C1478       C  0.66988996  0.34190387  0.53812910    -0.18200
C1479       C  0.69661632  0.36512441  0.53697853     0.10100
C1480       C  0.69194627  0.39721815  0.55440649    -0.07000
C1481       C  0.65899865  0.40732569  0.56342652    -0.18300
C1482       C  0.63275029  0.38401491  0.56512483     0.10100
S1483       S  0.73673990  0.35173707  0.51763433    -0.33200
S1484       S  0.59462958  0.39811029  0.08596304    -0.33200
H1485       H  0.57594423  0.37158439  0.06856650     0.28100
H1486       H  0.72621171  0.32017161  0.50317170     0.28100
H1487       H  0.67404765  0.31625250  0.52899565     0.18700
H1488       H  0.65448105  0.43262964  0.57388341     0.18700
C1489       C  0.65301115  0.23890457  0.56758701    -0.07100
C1490       C  0.64263280  0.20899592  0.54855952    -0.18200
C1491       C  0.66515298  0.18220568  0.54426541     0.10100
C1492       C  0.69789772  0.18494715  0.56120871    -0.07000
C1493       C  0.70857470  0.21559899  0.57758473    -0.18300
C1494       C  0.68698791  0.24288428  0.57945683     0.10100
S1495       S  0.65022590  0.14429492  0.01751183    -0.33200
S1496       S  0.70278025  0.28173191  0.60018566    -0.33200
H1497       H  0.73707237  0.27440624  0.59539391     0.28100
H1498       H  0.68200570  0.13242273  0.00599841     0.28100
H1499       H  0.61659911  0.20591332  0.53898026     0.18700
H1500       H  0.73345209  0.21746749  0.59149483     0.18700
C1501       C  0.80811508  0.17696658  0.54943262    -0.07100
C1502       C  0.84062449  0.16490644  0.55790282    -0.18200
C1503       C  0.86799027  0.18699099  0.56133480     0.10100
C1504       C  0.86246942  0.22177496  0.55700300    -0.07000
C1505       C  0.83172399  0.23293491  0.54039149    -0.18300
C1506       C  0.80472762  0.21055852  0.53532481     0.10100
S1507       S  0.90933097  0.17097188  0.57390177    -0.33200
S1508       S  0.76833487  0.22368334  0.00937622    -0.33200
H1509       H  0.76574167  0.19569310  0.98353952     0.28100
H1510       H  0.90002826  0.13693048  0.57694736     0.28100
H1511       H  0.84379488  0.13870458  0.56631205     0.18700
H1512       H  0.82782766  0.25944157  0.53432669     0.18700
C1513       C  0.74564529  0.45974809  0.76466643    -0.07100
C1514       C  0.77535251  0.46737266  0.74288679    -0.18600
C1515       C  0.77626338  0.46638758  0.69935123     0.10100
C1516       C  0.74688896  0.45682774  0.67701697    -0.07000
C1517       C  0.71605046  0.45788604  0.69830831    -0.18300
C1518       C  0.71509747  0.46060132  0.74179337     0.10100
S1519       S  0.80509633  0.97419667  0.67480291    -0.33200
S1520       S  0.67558941  0.46998253  0.76638451    -0.33200
H1521       H  0.65616006  0.47331553  0.72978229     0.28100
H1522       H  0.82310822  0.98415312  0.71047936     0.28100
H1523       H  0.78901166  0.96566184  0.76164491     0.18700
H1524       H  0.69258211  0.45714960  0.68123302     0.18700
C1525       C  0.93094037  0.27109655  0.76876702    -0.07100
C1526       C  0.92926849  0.24015084  0.74822989    -0.18200
C1527       C  0.92923218  0.23864146  0.70471695     0.10100
C1528       C  0.92764986  0.26890467  0.68103656    -0.07000
C1529       C  0.93722845  0.29855887  0.70124803    -0.18300
C1530       C  0.94018675  0.29972357  0.74453415     0.10100
S1531       S  0.93621411  0.19800641  0.68253894    -0.33200
S1532       S  0.95350298  0.33916014  0.76635109    -0.33200
H1533       H  0.97398725  0.32473926  0.79740216     0.28100
H1534       H  0.95246148  0.21073378  0.64692201     0.28100
H1535       H  0.92843788  0.21689292  0.76589850     0.18700
H1536       H  0.94072536  0.32149888  0.68328845     0.18700
C1537       C  0.85669257  0.33297581  0.86482900    -0.07100
C1538       C  0.82849179  0.32913203  0.83878198    -0.18200
C1539       C  0.80299389  0.35292999  0.83720131     0.10100
C1540       C  0.80554093  0.38165452  0.86251451    -0.07000
C1541       C  0.83195411  0.38389153  0.89173815    -0.18300
C1542       C  0.85778659  0.35989351  0.89292073     0.10100
S1543       S  0.76785802  0.34642157  0.80175788    -0.33200
S1544       S  0.89218954  0.36601673  0.92892126    -0.33200
H1545       H  0.91722479  0.35469121  0.90204299     0.28100
H1546       H  0.77741384  0.31478095  0.78723181     0.28100
H1547       H  0.82710554  0.30768492  0.81849239     0.18700
H1548       H  0.83368760  0.40554357  0.91168088     0.18700
C1549       C  0.59147303  0.28885823  0.77464155    -0.07100
C1550       C  0.62205978  0.29315296  0.75350774    -0.18200
C1551       C  0.62408629  0.29580728  0.71044235     0.10100
C1552       C  0.59464340  0.29224284  0.68542681    -0.07000
C1553       C  0.56389046  0.28646061  0.70606389    -0.18300
C1554       C  0.56202871  0.28395412  0.74984439     0.10100
S1555       S  0.66534846  0.30379121  0.68887108    -0.33200
S1556       S  0.52237560  0.26968458  0.77006318    -0.33200
H1557       H  0.53716405  0.24558286  0.79678239     0.28100
H1558       H  0.68480216  0.29863922  0.72514304     0.28100
H1559       H  0.64519351  0.29472329  0.77139630     0.18700
H1560       H  0.54109575  0.28209404  0.68844468     0.18700
C1561       C  0.70128952  0.39149473  0.88811848    -0.07100
C1562       C  0.71149506  0.35806978  0.88643805    -0.18200
C1563       C  0.68773830  0.33205666  0.88517156     0.10100
C1564       C  0.65346540  0.33901379  0.89254788    -0.07000
C1565       C  0.64404295  0.37219739  0.90053235    -0.18300
C1566       C  0.66741192  0.39860289  0.89713026     0.10100
S1567       S  0.70062721  0.29247483  0.86402661    -0.33200
S1568       S  0.65204954  0.44089494  0.90052184    -0.33200
H1569       H  0.68325156  0.45534794  0.91087638     0.28100
H1570       H  0.73529642  0.29647961  0.87195659     0.28100
H1571       H  0.73746138  0.35277876  0.87973154     0.18700
H1572       H  0.61769075  0.37798809  0.90470058     0.18700
C1573       C  0.75346378  0.12453356  0.67498920    -0.07100
C1574       C  0.75684693  0.15533118  0.69577651    -0.18200
C1575       C  0.75681878  0.15787003  0.73902166     0.10100
C1576       C  0.75373484  0.12848821  0.76422347    -0.07000
C1577       C  0.74955231  0.09759601  0.74390786    -0.18300
C1578       C  0.74846685  0.09519677  0.70010216     0.10100
S1579       S  0.75922297  0.19964214  0.76080677    -0.33200
S1580       S  0.73594404  0.05519638  0.67912231    -0.33200
H1581       H  0.74198741  0.03541662  0.71495558     0.28100
H1582       H  0.76716038  0.21742634  0.72407693     0.28100
H1583       H  0.75847578  0.17826683  0.67748447     0.18700
H1584       H  0.74510507  0.07515331  0.76201045     0.18700
C1585       C  0.69150425  0.17536556  0.88524670    -0.07100
C1586       C  0.69703963  0.20273046  0.91151032    -0.18200
C1587       C  0.67163221  0.22655167  0.91768907     0.10100
C1588       C  0.64119065  0.22424138  0.89445530    -0.07000
C1589       C  0.63359242  0.19324085  0.87611182    -0.18300
C1590       C  0.65827880  0.16869070  0.87157329     0.10100
S1591       S  0.67972313  0.25868567  0.95520220    -0.33200
S1592       S  0.64746338  0.12958678  0.84672038    -0.33200
H1593       H  0.61301174  0.13617437  0.84075825     0.28100
H1594       H  0.64918220  0.25250108  0.97555434     0.28100
H1595       H  0.72153251  0.20652330  0.92562116     0.18700
H1596       H  0.60915095  0.18965070  0.86162631     0.18700
C1597       C  0.81013541  0.17536322  0.89050616    -0.07100
C1598       C  0.80353269  0.20812016  0.90303938    -0.18200
C1599       C  0.82916298  0.23258315  0.90355549     0.10100
C1600       C  0.86164785  0.22410083  0.88933685    -0.07000
C1601       C  0.86910572  0.19003195  0.88390884    -0.18300
C1602       C  0.84381715  0.16558578  0.88500599     0.10100
S1603       S  0.81876498  0.27453473  0.91889942    -0.33200
S1604       S  0.85524820  0.12289652  0.87417202    -0.33200
H1605       H  0.82650775  0.10830332  0.89224600     0.28100
H1606       H  0.78527525  0.26806807  0.93041949     0.28100
H1607       H  0.77777196  0.21542003  0.90802624     0.18700
H1608       H  0.89428072  0.18279612  0.87513995     0.18700
C1609       C  0.75323948  0.63254390  0.31406576     0.85500
C1610       C  0.78310009  0.65386174  0.32874168    -0.54700
C1611       C  0.78341183  0.66092386  0.37009081     0.08400
C1612       C  0.75360781  0.64523152  0.39410405     0.19400
C1613       C  0.75503585  0.60081441  0.34228771    -0.55500
C1614       C  0.75518333  0.60758261  0.38387564     0.08500
C1615       C  0.72186857  0.65070558  0.32941975    -0.55000
C1616       C  0.72162516  0.65719708  0.37104796     0.09100
H1617       H  0.80226105  0.66337043  0.30768893     0.13600
H1618       H  0.75379030  0.65054999  0.42792107    -0.00600
H1619       H  0.75568912  0.57518907  0.33169085     0.13900
H1620       H  0.70129156  0.65786462  0.30871615     0.13700
C1621       C  0.58735959  0.77528777  0.32336554     0.85500
C1622       C  0.60809089  0.74550698  0.33989244    -0.54700
C1623       C  0.61690986  0.74633954  0.38117257     0.08400
C1624       C  0.60370234  0.77793941  0.40277164     0.19400
C1625       C  0.55679439  0.77653621  0.35244730    -0.55500
C1626       C  0.56543532  0.77757020  0.39379942     0.08500
C1627       C  0.60761291  0.80657475  0.33586599    -0.55000
C1628       C  0.61702781  0.80765351  0.37645185     0.09100
H1629       H  0.61621822  0.72564616  0.31951918     0.13600
H1630       H  0.60988510  0.77974485  0.43626543    -0.00600
H1631       H  0.53090082  0.77915984  0.34258768     0.13900
H1632       H  0.61574226  0.82569558  0.31363080     0.13700
C1633       C  0.91307003  0.79293583  0.31751825     0.85500
C1634       C  0.89051608  0.82308872  0.32543485    -0.54700
C1635       C  0.87801963  0.82480062  0.36474431     0.08400
C1636       C  0.89008986  0.79598724  0.39360273     0.19400
C1637       C  0.94067412  0.79458506  0.35047619    -0.55500
C1638       C  0.92882828  0.79634344  0.38998056     0.08500
C1639       C  0.89071954  0.76287450  0.33098030    -0.55000
C1640       C  0.87897129  0.76404644  0.37079167     0.09100
H1641       H  0.88118597  0.83926425  0.30048936     0.13600
H1642       H  0.88110030  0.79743981  0.42610188    -0.00600
H1643       H  0.96730537  0.79350603  0.34336499     0.13900
H1644       H  0.88357283  0.74262582  0.31040688     0.13700
C1645       C  0.73099127  0.94852573  0.31078868     0.85500
C1646       C  0.70122360  0.92788081  0.32886481    -0.54700
C1647       C  0.70596494  0.91704215  0.36919930     0.08400
C1648       C  0.74037114  0.92688636  0.38748303     0.19400
C1649       C  0.73734691  0.97647624  0.34178766    -0.55500
C1650       C  0.74224508  0.96530774  0.38162160     0.08500
C1651       C  0.76085077  0.92463029  0.31690590    -0.55000
C1652       C  0.76544541  0.91266618  0.35629656     0.09100
H1653       H  0.68066577  0.91810562  0.31020276     0.13600
H1654       H  0.74428909  0.91790295  0.42003417    -0.00600
H1655       H  0.75450038  0.50210780  0.33229463     0.13900
H1656       H  0.77665545  0.91669980  0.29152370     0.13700
C1657       C  0.75179134  0.62461911  0.12894167     0.85500
C1658       C  0.72085337  0.64426716  0.11363585    -0.54700
C1659       C  0.72098681  0.65326992  0.07265989     0.08400
C1660       C  0.75186585  0.64060609  0.04909816     0.19400
C1661       C  0.75236131  0.59406151  0.09980473    -0.55500
C1662       C  0.75251022  0.60262598  0.05840421     0.08500
C1663       C  0.78213340  0.64572536  0.11443663    -0.55000
C1664       C  0.78248075  0.65429197  0.07312511     0.09100
H1665       H  0.70165826  0.65318344  0.13460620     0.13600
H1666       H  0.75153179  0.64673043  0.01541103    -0.00600
H1667       H  0.75271872  0.56803080  0.10883310     0.13900
H1668       H  0.80183238  0.65377283  0.13584467     0.13700
C1669       C  0.59184514  0.77779879  0.13867454     0.85500
C1670       C  0.60693509  0.81141973  0.12363435    -0.54700
C1671       C  0.61371686  0.81323982  0.08207327     0.08400
C1672       C  0.60482280  0.78099789  0.05885346     0.19400
C1673       C  0.56036011  0.77357725  0.11049899    -0.55500
C1674       C  0.56744720  0.77541553  0.06883350     0.08500
C1675       C  0.61597431  0.75079491  0.12360304    -0.55000
C1676       C  0.62339647  0.75277892  0.08247706     0.09100
H1677       H  0.61267719  0.83184098  0.14462253     0.13600
H1678       H  0.61036175  0.78234391  0.02508102    -0.00600
H1679       H  0.53469462  0.77207898  0.12142131     0.13900
H1680       H  0.62756111  0.73234090  0.14432277     0.13700
C1681       C  0.90825753  0.78432577  0.14083928     0.85500
C1682       C  0.88991180  0.75215700  0.12664617    -0.54700
C1683       C  0.88003655  0.75255211  0.08567948     0.08400
C1684       C  0.88764641  0.78593688  0.06315219     0.19400
C1685       C  0.93641080  0.79003941  0.10970651    -0.55500
C1686       C  0.92584444  0.79054158  0.06939813     0.08500
C1687       C  0.88220987  0.81176853  0.13086128    -0.55000
C1688       C  0.87121503  0.81265803  0.09056161     0.09100
H1689       H  0.88284636  0.73182568  0.14754029     0.13600
H1690       H  0.87927453  0.78670369  0.03009046    -0.00600
H1691       H  0.96281035  0.79158443  0.11868701     0.13900
H1692       H  0.87178803  0.82804965  0.15424797     0.13700
C1693       C  0.73645367  0.94614480  0.13275348     0.85500
C1694       C  0.76614476  0.92251310  0.12498974    -0.54700
C1695       C  0.76887710  0.91196697  0.08487777     0.08400
C1696       C  0.74091999  0.92575341  0.05569184     0.19400
C1697       C  0.73974970  0.97462504  0.10081955    -0.55500
C1698       C  0.74239740  0.96415586  0.06090022     0.08500
C1699       C  0.70618950  0.92531301  0.11735250    -0.55000
C1700       C  0.70784456  0.91490194  0.07699851     0.09100
H1701       H  0.78236107  0.91293131  0.14974205     0.13600
H1702       H  0.74301951  0.91811961  0.02283043    -0.00600
H1703       H  0.75565850  0.50012854  0.10961395     0.13900
H1704       H  0.68578711  0.91732387  0.13737627     0.13700
O1705       O  0.53466489  0.81163548  0.43927539    -0.75400
O1706       O  0.96331533  0.81616116  0.02210183    -0.75400
O1707       O  0.53637552  0.81031004  0.02318585    -0.75500
O1708       O  0.96457369  0.82154257  0.43998839    -0.75500
O1709       O  0.96077725  0.76558403  0.43888743    -0.75500
O1710       O  0.52472124  0.75540768  0.02311815    -0.75500
O1711       O  0.95978894  0.76016521  0.02366690    -0.75400
O1712       O  0.52377445  0.75658897  0.44026717    -0.75500
Ni1713     Ni  0.99842057  0.82027022  0.48275626     1.25400
Ni1714     Ni  0.99359297  0.76033710  0.48208999     1.25400
C1715       C  0.54018081  0.78203806  0.42621301     0.86800
C1716       C  0.95031896  0.78895545  0.03612195     0.86700
C1717       C  0.54139330  0.78048697  0.03700834     0.86700
C1718       C  0.95196757  0.79452613  0.42528127     0.86900
O1719       O  0.78318016  0.56797680  0.01306807    -0.75400
O1720       O  0.78645491  0.50190560  0.42991475    -0.75400
O1721       O  0.78383026  0.57022313  0.42980078    -0.75500
O1722       O  0.78648789  0.50006362  0.01419018    -0.75500
O1723       O  0.73035076  0.49704222  0.01160927    -0.75500
O1724       O  0.72766739  0.56808096  0.42807293    -0.75500
O1725       O  0.73027793  0.50003297  0.42777562    -0.75400
O1726       O  0.72705570  0.56477417  0.01122224    -0.75500
Ni1727     Ni  0.78642418  0.53577526  0.47191343     1.25400
Ni1728     Ni  0.72623544  0.53302399  0.46968786     1.25400
C1729       C  0.75432566  0.57735167  0.02580713     0.86800
C1730       C  0.74440017  0.98898478  0.41571239     0.86700
C1731       C  0.75556815  0.58075929  0.41560916     0.86700
C1732       C  0.74421666  0.98843836  0.02641388     0.86900
C1733       C  0.84236258  0.83422900  0.07824880    -0.07100
C1734       C  0.84846812  0.86495641  0.05779752    -0.18200
C1735       C  0.82368144  0.88997771  0.05580291     0.10100
C1736       C  0.79223676  0.88426870  0.07484409    -0.07000
C1737       C  0.78540035  0.85257207  0.09243206    -0.18300
C1738       C  0.81006716  0.82758724  0.09442554     0.10100
S1739       S  0.83240074  0.92934600  0.52818920    -0.33200
S1740       S  0.80095942  0.78814294  0.12048357    -0.33200
H1741       H  0.76969518  0.79736655  0.13677947     0.28100
H1742       H  0.80040148  0.93474911  0.51059726     0.28100
H1743       H  0.87331810  0.87030289  0.04571968     0.18700
H1744       H  0.76122685  0.84818584  0.10686623     0.18700
C1745       C  0.63080329  0.84287634  0.06311473    -0.07100
C1746       C  0.66025847  0.83795388  0.04040833    -0.18200
C1747       C  0.68542914  0.86291125  0.03886950     0.10100
C1748       C  0.68006497  0.89357694  0.05957154    -0.07000
C1749       C  0.64719597  0.90076447  0.07264156    -0.18300
C1750       C  0.62261296  0.87572134  0.07486053     0.10100
S1751       S  0.72469644  0.85322462  0.01430427    -0.33200
S1752       S  0.58213030  0.88749074  0.59894825    -0.33200
H1753       H  0.56428423  0.86038378  0.58164401     0.28100
H1754       H  0.71294531  0.82511872  0.99233011     0.28100
H1755       H  0.66532218  0.81335057  0.02821925     0.18700
H1756       H  0.64162337  0.92516188  0.08528691     0.18700
C1757       C  0.65004551  0.73139392  0.06543993    -0.07100
C1758       C  0.64133258  0.70013868  0.04865779    -0.18200
C1759       C  0.66561596  0.67493958  0.04458429     0.10100
C1760       C  0.69880519  0.68088217  0.05866425    -0.07000
C1761       C  0.70780913  0.71297628  0.07209590    -0.18300
C1762       C  0.68404601  0.73839173  0.07480385     0.10100
S1763       S  0.65293070  0.63803345  0.51793508    -0.33200
S1764       S  0.69721664  0.77815233  0.09543834    -0.33200
H1765       H  0.73057110  0.77584145  0.08157205     0.28100
H1766       H  0.68527720  0.62835264  0.50558436     0.28100
H1767       H  0.61522426  0.69459589  0.04140121     0.18700
H1768       H  0.73287949  0.71724147  0.08457246     0.18700
C1769       C  0.81085494  0.67482635  0.05621342    -0.07100
C1770       C  0.84334099  0.66626381  0.07018367    -0.18200
C1771       C  0.86824052  0.69087685  0.07527184     0.10100
C1772       C  0.86013402  0.72474965  0.06718340    -0.07000
C1773       C  0.83030247  0.73210609  0.04533956    -0.18300
C1774       C  0.80602679  0.70711288  0.03847022     0.10100
S1775       S  0.90971748  0.67903016  0.09333205    -0.33200
S1776       S  0.77364498  0.71678932  0.50697945    -0.33200
H1777       H  0.78082986  0.68996342  0.48066817     0.28100
H1778       H  0.90434109  0.64412258  0.09277801     0.28100
H1779       H  0.84805146  0.64089989  0.08117035     0.18700
H1780       H  0.82484713  0.75770303  0.03588974     0.18700
C1781       C  0.72897248  0.96083825  0.26534146    -0.07100
C1782       C  0.75942687  0.96884668  0.24531418    -0.18600
C1783       C  0.76227018  0.96757665  0.20207514     0.10100
C1784       C  0.73378028  0.95831093  0.17780917    -0.07000
C1785       C  0.70210327  0.95979714  0.19728423    -0.18300
C1786       C  0.69934016  0.96144274  0.24075105     0.10100
S1787       S  0.81952069  0.47443606  0.18043240    -0.33200
S1788       S  0.65858727  0.96865270  0.26331235    -0.33200
H1789       H  0.63975321  0.96829190  0.22605938     0.28100
H1790       H  0.80727038  0.49446345  0.14754224     0.28100
H1791       H  0.79932684  0.46951893  0.26368814     0.18700
H1792       H  0.67937210  0.95958305  0.17864156     0.18700
C1793       C  0.92573905  0.79102303  0.27278657    -0.07100
C1794       C  0.92877220  0.75950571  0.25408874    -0.18200
C1795       C  0.92773916  0.75633174  0.21087341     0.10100
C1796       C  0.92115586  0.78512458  0.18579193    -0.07000
C1797       C  0.92694750  0.81659966  0.20391972    -0.18300
C1798       C  0.93042008  0.81976278  0.24695926     0.10100
S1799       S  0.93857418  0.71591400  0.19067246    -0.33200
S1800       S  0.94120392  0.86080165  0.26624884    -0.33200
H1801       H  0.95636503  0.84912886  0.30326491     0.28100
H1802       H  0.95233791  0.72881716  0.15359943     0.28100
H1803       H  0.93138787  0.73708375  0.27320808     0.18700
H1804       H  0.92751861  0.83906094  0.18457075     0.18700
C1805       C  0.84654672  0.84370879  0.37059642    -0.07100
C1806       C  0.82047313  0.83714981  0.34213099    -0.18200
C1807       C  0.79251591  0.85775445  0.33880724     0.10100
C1808       C  0.79011865  0.88575881  0.36525239    -0.07000
C1809       C  0.81397986  0.88989628  0.39735582    -0.18300
C1810       C  0.84248627  0.86923074  0.40012093     0.10100
S1811       S  0.76116528  0.84831071  0.29919578    -0.33200
S1812       S  0.87304644  0.87775620  0.44047727    -0.33200
H1813       H  0.90114930  0.86449361  0.42052280     0.28100
H1814       H  0.77313490  0.81641841  0.28866551     0.28100
H1815       H  0.82296785  0.81647245  0.32087736     0.18700
H1816       H  0.81170104  0.91075022  0.41840485     0.18700
C1817       C  0.58453578  0.77376929  0.27542948    -0.07100
C1818       C  0.61537397  0.77789776  0.25478399    -0.18200
C1819       C  0.61784799  0.78035518  0.21178223     0.10100
C1820       C  0.58868643  0.77649243  0.18637235    -0.07000
C1821       C  0.55777356  0.77031022  0.20650357    -0.18300
C1822       C  0.55542224  0.76830246  0.25027962     0.10100
S1823       S  0.65940244  0.78814575  0.19088263    -0.33200
S1824       S  0.51556246  0.75450487  0.27027033    -0.33200
H1825       H  0.53010881  0.73075000  0.29767756     0.28100
H1826       H  0.67485193  0.79982669  0.22753574     0.28100
H1827       H  0.63833231  0.77971226  0.27304077     0.18700
H1828       H  0.53518360  0.76580130  0.18852804     0.18700
C1829       C  0.68583454  0.88871204  0.38616056    -0.07100
C1830       C  0.69791961  0.85652197  0.37890394    -0.18200
C1831       C  0.67618027  0.82894373  0.37782797     0.10100
C1832       C  0.64226956  0.83285651  0.38940796    -0.07000
C1833       C  0.63121633  0.86439922  0.40244027    -0.18300
C1834       C  0.65263224  0.89254424  0.40031870     0.10100
S1835       S  0.69066501  0.79093856  0.35388276    -0.33200
S1836       S  0.63586525  0.93290050  0.41331727    -0.33200
H1837       H  0.66713327  0.94789311  0.42253928     0.28100
H1838       H  0.72527250  0.79731851  0.35934041     0.28100
H1839       H  0.72351855  0.85364576  0.36909884     0.18700
H1840       H  0.60507071  0.86770137  0.41061988     0.18700
C1841       C  0.75202444  0.62246928  0.17724472    -0.07100
C1842       C  0.75089319  0.65393899  0.19688538    -0.18200
C1843       C  0.75093052  0.65757647  0.23998944     0.10100
C1844       C  0.75280187  0.62881239  0.26635273    -0.07000
C1845       C  0.75427615  0.59720515  0.24725540    -0.18300
C1846       C  0.75364769  0.59348283  0.20360717     0.10100
S1847       S  0.74916531  0.69986848  0.26008179    -0.33200
S1848       S  0.75596577  0.55130713  0.18447188    -0.33200
H1849       H  0.74792210  0.53421212  0.22164489     0.28100
H1850       H  0.73871611  0.71612738  0.22309223     0.28100
H1851       H  0.75018934  0.67649224  0.17774577     0.18700
H1852       H  0.75630922  0.57486249  0.26612935     0.18700
C1853       C  0.69224249  0.67379930  0.39036895    -0.07100
C1854       C  0.69683239  0.70305578  0.41359082    -0.18200
C1855       C  0.67005694  0.72539396  0.41925650     0.10100
C1856       C  0.63874809  0.71906788  0.39929322    -0.07000
C1857       C  0.63274022  0.68644927  0.38472691    -0.18300
C1858       C  0.65912481  0.66372877  0.38014817     0.10100
S1859       S  0.67779385  0.76139214  0.45105404    -0.33200
S1860       S  0.65064582  0.62264572  0.35915679    -0.33200
H1861       H  0.61577419  0.62668425  0.35340350     0.28100
H1862       H  0.64942465  0.75497484  0.47563212     0.28100
H1863       H  0.72149283  0.70952050  0.42536275     0.18700
H1864       H  0.60802942  0.68017188  0.37257026     0.18700
C1865       C  0.80987989  0.68334047  0.38735136    -0.07100
C1866       C  0.80066331  0.71526087  0.40074425    -0.18200
C1867       C  0.82419265  0.74173022  0.40222237     0.10100
C1868       C  0.85714277  0.73643728  0.38741361    -0.07000
C1869       C  0.86725546  0.70339631  0.37975279    -0.18300
C1870       C  0.84418446  0.67683358  0.38029446     0.10100
S1871       S  0.81073110  0.78204295  0.42023850    -0.33200
S1872       S  0.85932807  0.63567299  0.36779128    -0.33200
H1873       H  0.83284342  0.61802237  0.38705352     0.28100
H1874       H  0.77825593  0.77225409  0.43272895     0.28100
H1875       H  0.77454026  0.72025082  0.40653264     0.18700
H1876       H  0.89286708  0.69862336  0.37028785     0.18700
C1877       C  0.74530851  0.62685126  0.81214369     0.85500
C1878       C  0.77362075  0.65106247  0.82300135    -0.54700
C1879       C  0.77578510  0.65990133  0.86370776     0.08400
C1880       C  0.75012286  0.64132427  0.89145499     0.19400
C1881       C  0.75246433  0.59604187  0.84022077    -0.55500
C1882       C  0.75501832  0.60377267  0.88165820     0.08500
C1883       C  0.71327768  0.64145394  0.83083780    -0.55000
C1884       C  0.71550873  0.64935541  0.87196281     0.09100
H1885       H  0.78971992  0.66217411  0.79928250     0.13600
H1886       H  0.75208279  0.64748906  0.92497526    -0.00600
H1887       H  0.75354538  0.57041133  0.82948477     0.13900
H1888       H  0.69083010  0.64630035  0.81225205     0.13700
C1889       C  0.59066345  0.77353642  0.82318654     0.85500
C1890       C  0.60912943  0.74266875  0.84080331    -0.54700
C1891       C  0.61730461  0.74352281  0.88232828     0.08400
C1892       C  0.60613929  0.77639780  0.90285752     0.19400
C1893       C  0.55989207  0.77739539  0.85161304    -0.55500
C1894       C  0.56799794  0.77853657  0.89313464     0.08500
C1895       C  0.61284537  0.80363987  0.83541172    -0.55000
C1896       C  0.62196656  0.80466780  0.87612127     0.09100
H1897       H  0.61608581  0.72193775  0.82109635     0.13600
H1898       H  0.61201987  0.77832534  0.93640957    -0.00600
H1899       H  0.53428634  0.78101626  0.84099931     0.13900
H1900       H  0.62193377  0.82224490  0.81309918     0.13700
C1901       C  0.91430492  0.79518088  0.81708598     0.85500
C1902       C  0.89139554  0.82389391  0.83181068    -0.54700
C1903       C  0.87949670  0.81994519  0.87138906     0.08400
C1904       C  0.89035581  0.78700634  0.89223491     0.19400
C1905       C  0.94153467  0.79203575  0.85026458    -0.55500
C1906       C  0.92916560  0.78780350  0.88936079     0.08500
C1907       C  0.89233334  0.76359021  0.82314724    -0.55000
C1908       C  0.87835690  0.76011866  0.86132275     0.09100
H1909       H  0.88137525  0.84326671  0.81133865     0.13600
H1910       H  0.88046762  0.78355094  0.92422308    -0.00600
H1911       H  0.96825427  0.79361973  0.84363711     0.13900
H1912       H  0.88560775  0.74689496  0.79794054     0.13700
C1913       C  0.73854027  0.94313712  0.81201989     0.85500
C1914       C  0.71031209  0.91985271  0.82895241    -0.54700
C1915       C  0.71379790  0.91108238  0.87012679     0.08400
C1916       C  0.74599271  0.92504719  0.89032352     0.19400
C1917       C  0.74004663  0.97257155  0.84175512    -0.55500
C1918       C  0.74398440  0.96318646  0.88239222     0.08500
C1919       C  0.77057247  0.92284611  0.82156665    -0.55000
C1920       C  0.77429850  0.91303840  0.86202108     0.09100
H1921       H  0.69086090  0.90870535  0.80962429     0.13600
H1922       H  0.74924353  0.91750475  0.92351834    -0.00600
H1923       H  0.75562006  0.50186167  0.83237965     0.13900
H1924       H  0.78755341  0.91423549  0.79772990     0.13700
C1925       C  0.74610761  0.62637884  0.62794306     0.85500
C1926       C  0.71669639  0.64682526  0.60942154    -0.54700
C1927       C  0.72008519  0.65597735  0.56875444     0.08400
C1928       C  0.75229477  0.64234014  0.54880783     0.19400
C1929       C  0.74704166  0.59588223  0.59930048    -0.55500
C1930       C  0.75107366  0.60430069  0.55830186     0.08500
C1931       C  0.77775527  0.64686982  0.61725268    -0.55000
C1932       C  0.78141010  0.65532275  0.57617691     0.09100
H1933       H  0.69563916  0.65543557  0.62768396     0.13600
H1934       H  0.75447809  0.64820437  0.51521588    -0.00600
H1935       H  0.74300737  0.57011930  0.60911433     0.13900
H1936       H  0.79572423  0.65466471  0.64097932     0.13700
C1937       C  0.59271815  0.77753418  0.63803344     0.85500
C1938       C  0.60757658  0.81155988  0.62390713    -0.54700
C1939       C  0.61331962  0.81454339  0.58213797     0.08400
C1940       C  0.60386672  0.78301694  0.55784975     0.19400
C1941       C  0.56059324  0.77410499  0.61070626    -0.55500
C1942       C  0.56670715  0.77718772  0.56887528     0.08500
C1943       C  0.61648270  0.75100065  0.62084663    -0.55000
C1944       C  0.62307511  0.75422645  0.57955343     0.09100
H1945       H  0.61392652  0.83135274  0.64555509     0.13600
H1946       H  0.60863593  0.78530642  0.52394010    -0.00600
H1947       H  0.53520888  0.77190063  0.62241747     0.13900
H1948       H  0.62859181  0.73203663  0.64034068     0.13700
C1949       C  0.90780999  0.78999527  0.64086049     0.85500
C1950       C  0.89118254  0.75627738  0.62908264    -0.54700
C1951       C  0.88136719  0.75412429  0.58815351     0.08400
C1952       C  0.88772124  0.78672767  0.56318396     0.19400
C1953       C  0.93581495  0.79582047  0.60959039    -0.55500
C1954       C  0.92553069  0.79376029  0.56933754     0.08500
C1955       C  0.88042362  0.81552622  0.62868834    -0.55000
C1956       C  0.86984982  0.81387755  0.58831613     0.09100
H1957       H  0.88518633  0.73687209  0.65183367     0.13600
H1958       H  0.87968929  0.78565913  0.53004487    -0.00600
H1959       H  0.96199335  0.79959064  0.61856868     0.13900
H1960       H  0.86874193  0.83230460  0.65054699     0.13700
C1961       C  0.73772975  0.94465037  0.63236061     0.85500
C1962       C  0.76604069  0.91998603  0.62261662    -0.54700
C1963       C  0.76769972  0.91085662  0.58191856     0.08400
C1964       C  0.74002539  0.92676260  0.55419138     0.19400
C1965       C  0.74229251  0.97407388  0.60191611    -0.55500
C1966       C  0.74341970  0.96480258  0.56131315     0.08500
C1967       C  0.70622624  0.92591797  0.61658474    -0.55000
C1968       C  0.70691243  0.91659474  0.57575269     0.09100
H1969       H  0.78241945  0.90911803  0.64639476     0.13600
H1970       H  0.74123071  0.92015984  0.52089510    -0.00600
H1971       H  0.75585130  0.50003366  0.60945161     0.13900
H1972       H  0.68594402  0.91788919  0.63674032     0.13700
O1973       O  0.53673440  0.81221588  0.93925453    -0.75400
O1974       O  0.96412349  0.82010399  0.52396992    -0.75400
O1975       O  0.53466876  0.81143044  0.52307672    -0.75500
O1976       O  0.96414440  0.81473459  0.93825771    -0.75500
O1977       O  0.96097530  0.75871278  0.94010016    -0.75500
O1978       O  0.52305581  0.75653225  0.52487346    -0.75500
O1979       O  0.95887785  0.76426739  0.52231414    -0.75400
O1980       O  0.52564704  0.75724381  0.93849973    -0.75500
Ni1981     Ni  0.99772937  0.81574476  0.98114948     1.25400
Ni1982     Ni  0.99424770  0.75569540  0.98302944     1.25400
C1983       C  0.54229355  0.78284536  0.92532311     0.86800
C1984       C  0.95020018  0.79279004  0.53629138     0.86700
C1985       C  0.53992763  0.78185630  0.53770307     0.86700
C1986       C  0.95192034  0.78705279  0.92496308     0.86900
O1987       O  0.78193342  0.56940678  0.51363944    -0.75400
O1988       O  0.78818288  0.50008484  0.92983171    -0.75400
O1989       O  0.78482590  0.56811323  0.92876475    -0.75500
O1990       O  0.78529420  0.50130439  0.51406175    -0.75500
O1991       O  0.72917554  0.49829788  0.51146279    -0.75500
O1992       O  0.72867293  0.56525473  0.92721134    -0.75500
O1993       O  0.73204211  0.49764573  0.92780769    -0.75400
O1994       O  0.72579175  0.56618661  0.51189154    -0.75500
Ni1995     Ni  0.78773692  0.53414671  0.97154861     1.25400
Ni1996     Ni  0.72755948  0.53104519  0.96937031     1.25400
C1997       C  0.75305127  0.57884366  0.52622473     0.86800
C1998       C  0.74510050  0.98802285  0.91513935     0.86700
C1999       C  0.75636821  0.57780363  0.91415817     0.86700
C2000       C  0.74500951  0.98971599  0.52753729     0.86900
C2001       C  0.84070480  0.83392521  0.57386096    -0.07100
C2002       C  0.84661120  0.86458603  0.55322732    -0.18200
C2003       C  0.82160621  0.88928594  0.55095379     0.10100
C2004       C  0.79021632  0.88321512  0.56984691    -0.07000
C2005       C  0.78341003  0.85136235  0.58696125    -0.18300
C2006       C  0.80835254  0.82676036  0.58943961     0.10100
S2007       S  0.83471385  0.92974863  0.03241646    -0.33200
S2008       S  0.79975592  0.78758697  0.61636453    -0.33200
H2009       H  0.76893565  0.79707458  0.63366101     0.28100
H2010       H  0.80252302  0.93577161  0.01575552     0.28100
H2011       H  0.87157913  0.87032423  0.54179505     0.18700
H2012       H  0.75924436  0.84678102  0.60133893     0.18700
C2013       C  0.63003210  0.84454226  0.56358579    -0.07100
C2014       C  0.65882223  0.84002324  0.53952689    -0.18200
C2015       C  0.68385990  0.86506343  0.53738612     0.10100
C2016       C  0.67879806  0.89561458  0.55852533    -0.07000
C2017       C  0.64625441  0.90248480  0.57298306    -0.18300
C2018       C  0.62198987  0.87719171  0.57618120     0.10100
S2019       S  0.72249635  0.85586019  0.51095703    -0.33200
S2020       S  0.58215138  0.88655484  0.09562152    -0.33200
H2021       H  0.56469896  0.85917627  0.07839466     0.28100
H2022       H  0.71375440  0.82347617  0.49761769     0.28100
H2023       H  0.66343880  0.81564321  0.52646731     0.18700
H2024       H  0.64089171  0.92674617  0.58614822     0.18700
C2025       C  0.64988212  0.73386012  0.56081123    -0.07100
C2026       C  0.64145321  0.70299353  0.54280392    -0.18200
C2027       C  0.66592988  0.67805194  0.53800841     0.10100
C2028       C  0.69906080  0.68381523  0.55246620    -0.07000
C2029       C  0.70794925  0.71589294  0.56612638    -0.18300
C2030       C  0.68393745  0.74102386  0.56983795     0.10100
S2031       S  0.65233294  0.63467193  0.02552127    -0.33200
S2032       S  0.69690941  0.78029393  0.59196656    -0.33200
H2033       H  0.72987885  0.77903018  0.57657158     0.28100
H2034       H  0.68435699  0.62502308  0.01200818     0.28100
H2035       H  0.61537456  0.69735037  0.53550814     0.18700
H2036       H  0.73290605  0.72011294  0.57895206     0.18700
C2037       C  0.81113444  0.67566554  0.56253387    -0.07100
C2038       C  0.84244883  0.66763096  0.58063536    -0.18200
C2039       C  0.86784443  0.69190984  0.58475708     0.10100
C2040       C  0.86127320  0.72529011  0.57208588    -0.07000
C2041       C  0.83268384  0.73161428  0.54725264    -0.18300
C2042       C  0.80811845  0.70677319  0.54120266     0.10100
S2043       S  0.90823239  0.68006316  0.60632835    -0.33200
S2044       S  0.76953008  0.71838961  0.00822727    -0.33200
H2045       H  0.77286500  0.69137225  0.98105734     0.28100
H2046       H  0.90155294  0.64545364  0.60993159     0.28100
H2047       H  0.84599708  0.64294271  0.59440746     0.18700
H2048       H  0.82826737  0.75649740  0.53449881     0.18700
C2049       C  0.73603666  0.95396711  0.76610231    -0.07100
C2050       C  0.76580765  0.96187238  0.74443233    -0.18600
C2051       C  0.76642017  0.96292998  0.70082380     0.10100
C2052       C  0.73680406  0.95482515  0.67825447    -0.07000
C2053       C  0.70612991  0.95565002  0.69994475    -0.18300
C2054       C  0.70539878  0.95602018  0.74356389     0.10100
S2055       S  0.81551515  0.47556138  0.67337466    -0.33200
S2056       S  0.66576964  0.96273396  0.76924395    -0.33200
H2057       H  0.64493228  0.95985775  0.73385432     0.28100
H2058       H  0.83273411  0.48836565  0.70819550     0.28100
H2059       H  0.79853560  0.47121650  0.76016852     0.18700
H2060       H  0.68259974  0.95644314  0.68295978     0.18700
C2061       C  0.92728759  0.79788446  0.77252462    -0.07100
C2062       C  0.93617907  0.76810732  0.75251117    -0.18200
C2063       C  0.93368685  0.76539573  0.70932860     0.10100
C2064       C  0.92050812  0.79275228  0.68572067    -0.07000
C2065       C  0.92066279  0.82438776  0.70478947    -0.18300
C2066       C  0.92518882  0.82733716  0.74772267     0.10100
S2067       S  0.94814715  0.72668173  0.68754023    -0.33200
S2068       S  0.93210826  0.86886558  0.76779294    -0.33200
H2069       H  0.94885592  0.85782776  0.80419170     0.28100
H2070       H  0.95866969  0.74080170  0.64960245     0.28100
H2071       H  0.94258138  0.74601260  0.77087453     0.18700
H2072       H  0.91714144  0.84701230  0.68628901     0.18700
C2073       C  0.85008869  0.83948725  0.88465334    -0.07100
C2074       C  0.81935551  0.83022548  0.86697904    -0.18200
C2075       C  0.79514042  0.85411003  0.85724692     0.10100
C2076       C  0.79851837  0.88659907  0.87377293    -0.07000
C2077       C  0.82681465  0.89439343  0.89842621    -0.18300
C2078       C  0.85331149  0.87135376  0.90278037     0.10100
S2079       S  0.76354813  0.84389747  0.81834413    -0.33200
S2080       S  0.89102731  0.88409522  0.92984663    -0.33200
H2081       H  0.90187785  0.85136903  0.93955220     0.28100
H2082       H  0.76585118  0.80885888  0.82272934     0.28100
H2083       H  0.81611955  0.80511233  0.85595983     0.18700
H2084       H  0.82944718  0.91924062  0.91140668     0.18700
C2085       C  0.58768840  0.77147073  0.77519935    -0.07100
C2086       C  0.61830665  0.77486067  0.75389752    -0.18200
C2087       C  0.62016760  0.77744505  0.71074250     0.10100
C2088       C  0.59049454  0.77488437  0.68591882    -0.07000
C2089       C  0.55990240  0.76854610  0.70676654    -0.18300
C2090       C  0.55827929  0.76596754  0.75060360     0.10100
S2091       S  0.66140242  0.78512139  0.68894376    -0.33200
S2092       S  0.51911911  0.75088475  0.77142456    -0.33200
H2093       H  0.53465668  0.72881709  0.80014819     0.28100
H2094       H  0.68067521  0.77451473  0.72357278     0.28100
H2095       H  0.64146948  0.77671148  0.77169293     0.18700
H2096       H  0.53699431  0.76435147  0.68930057     0.18700
C2097       C  0.69180659  0.88509966  0.88953325    -0.07100
C2098       C  0.70377922  0.85225236  0.89084104    -0.18200
C2099       C  0.68170639  0.82511726  0.88642178     0.10100
C2100       C  0.64663014  0.83027685  0.88992613    -0.07000
C2101       C  0.63497761  0.86296235  0.89667074    -0.18300
C2102       C  0.65717506  0.89050389  0.89536312     0.10100
S2103       S  0.70008981  0.78659735  0.86873931    -0.33200
S2104       S  0.64001148  0.93205138  0.89887993    -0.33200
H2105       H  0.67013726  0.94736952  0.91220214     0.28100
H2106       H  0.67499762  0.77856398  0.83959920     0.28100
H2107       H  0.73044533  0.84797171  0.88938504     0.18700
H2108       H  0.60818030  0.86737757  0.89887784     0.18700
C2109       C  0.74363601  0.62210876  0.67556632    -0.07100
C2110       C  0.73463928  0.65120754  0.69696509    -0.18200
C2111       C  0.73406197  0.65279917  0.74007894     0.10100
C2112       C  0.74274002  0.62410131  0.76462049    -0.07000
C2113       C  0.75324640  0.59519271  0.74376542    -0.18300
C2114       C  0.75535067  0.59433921  0.69990076     0.10100
S2115       S  0.72492357  0.69345007  0.76206407    -0.33200
S2116       S  0.77771503  0.55985912  0.67731470    -0.33200
H2117       H  0.78662317  0.54301485  0.71447593     0.28100
H2118       H  0.70746930  0.70692762  0.72745771     0.28100
H2119       H  0.72986253  0.67415084  0.67961162     0.18700
H2120       H  0.76219722  0.57396440  0.76170638     0.18700
C2121       C  0.68745065  0.66692486  0.89283395    -0.07100
C2122       C  0.69397497  0.69628151  0.91527680    -0.18200
C2123       C  0.66815240  0.71951110  0.92201774     0.10100
C2124       C  0.63665008  0.71498743  0.90186458    -0.07000
C2125       C  0.62866297  0.68258877  0.88798896    -0.18300
C2126       C  0.65363322  0.65821605  0.88420011     0.10100
S2127       S  0.67635421  0.75312806  0.95743297    -0.33200
S2128       S  0.64252018  0.61681298  0.86610849    -0.33200
H2129       H  0.60772455  0.62235955  0.86201996     0.28100
H2130       H  0.64578907  0.74808132  0.97817851     0.28100
H2131       H  0.71934121  0.70200415  0.92569057     0.18700
H2132       H  0.60361736  0.67761214  0.87594297     0.18700
C2133       C  0.79670077  0.68964664  0.87449325    -0.07100
C2134       C  0.79380821  0.71681507  0.84668667    -0.18200
C2135       C  0.82036646  0.73875867  0.83974695     0.10100
C2136       C  0.84840337  0.73826635  0.86766640    -0.07000
C2137       C  0.84854014  0.71473052  0.90078382    -0.18300
C2138       C  0.82388765  0.68921192  0.90311896     0.10100
S2139       S  0.81695040  0.76209653  0.79086712    -0.33200
S2140       S  0.82993533  0.65590723  0.94080862    -0.33200
H2141       H  0.81909378  0.63003551  0.91461266     0.28100
H2142       H  0.83846685  0.78917471  0.79825534     0.28100
H2143       H  0.77244430  0.71792409  0.82553217     0.18700
H2144       H  0.86966900  0.71415897  0.92233952     0.18700
loop_ 
_geom_bond_atom_site_label_1 
_geom_bond_atom_site_label_2 
_geom_bond_distance 
_geom_bond_site_symmetry_2 
_ccdc_geom_bond_type 
C1            C2   1.528       .  S
C1            C7   1.530       .  S
C1            C5   1.548       .  S
C1          C236   1.536       .  S
C2            H9   1.087       .  S
C2            C3   1.362       .  D
C3            C4   1.542       .  S
C3          C257   1.481       .  S
C4            C8   1.539       .  S
C4            C6   1.536       .  S
C4           H10   1.111       .  S
C5           H11   1.082       .  S
C5            C6   1.370       .  D
C6          C123   1.459       .  S
C7           H12   1.087       .  S
C7            C8   1.364       .  D
C8          C245   1.487       .  S
C13          C14   1.537       .  S
C13          C19   1.534       .  S
C13          C17   1.545       .  S
C13         C209   1.547       .  S
C14          H21   1.087       .  S
C14          C15   1.373       .  D
C15          C16   1.539       .  S
C15         C248   1.501       .  S
C16          C20   1.541       .  S
C16          C18   1.540       .  S
C16          H22   1.103       .  S
C17          H23   1.080       .  S
C17          C18   1.371       .  D
C18         C107   1.467       .  S
C19          H24   1.088       .  S
C19          C20   1.355       .  D
C20         C224   1.476       .  S
C25          C26   1.530       .  S
C25          C31   1.546       .  S
C25          C29   1.520       .  S
C25         C185   1.531       .  S
C26          H33   1.086       .  S
C26          C27   1.364       .  D
C27          C28   1.545       .  S
C27         C197   1.482       .  S
C28          C32   1.540       .  S
C28          C30   1.547       .  S
C28          H34   1.109       .  S
C29          H35   1.087       .  S
C29          C30   1.360       .  D
C30         C110   1.457       .  S
C31          H36   1.085       .  S
C31          C32   1.370       .  D
C32         C260   1.494       .  S
C37          C38   1.550       .  S
C37          C43   1.538       .  S
C37          C41   1.527       .  S
C37         C173   1.538       .  S
C38          H45   1.083       .  S
C38          C39   1.371       .  D
C39          C40   1.532       .  S
C39         C221   1.481       .  S
C40          C44   1.536       .  S
C40          C42   1.541       .  S
C40          H46   1.111       .  S
C41         H583   1.087       .  S
C41          C42   1.365       .  D
C42         C122   1.461       .  S
C43          H48   1.087       .  S
C43          C44   1.360       .  D
C44         C200   1.480       .  S
H47         C577   1.086   1_545  S
C49          C50   1.536       .  S
C49          C55   1.542       .  S
C49          C53   1.539       .  S
C49         C233   1.548       .  S
C50          H57   1.088       .  S
C50          C51   1.360       .  D
C51          C52   1.538       .  S
C51         C152   1.479       .  S
C52          C56   1.538       .  S
C52          C54   1.540       .  S
C52          H58   1.106       .  S
C53          H59   1.074       .  S
C53          C54   1.365       .  D
C54         C121   1.457       .  S
C55          H60   1.087       .  S
C55          C56   1.369       .  D
C56         C161   1.494       .  S
C61          C62   1.537       .  S
C61          C67   1.534       .  S
C61          C65   1.547       .  S
C61         C212   1.542       .  S
C62          H69   1.086       .  S
C62          C63   1.369       .  D
C63          C64   1.534       .  S
C63         C137   1.482       .  S
C64          C68   1.537       .  S
C64          C66   1.538       .  S
C64          H70   1.110       .  S
C65          H71   1.082       .  S
C65          C66   1.369       .  D
C66         C109   1.463       .  S
C67          H72   1.087       .  S
C67          C68   1.359       .  D
C68         C149   1.480       .  S
C73          C74   1.539       .  S
C73          C79   1.538       .  S
C73          C77   1.524       .  S
C73         C188   1.531       .  S
C74          H81   1.083       .  S
C74          C75   1.368       .  D
C75          C76   1.539       .  S
C75         C164   1.485       .  S
C76          C80   1.545       .  S
C76          C78   1.544       .  S
C76          H82   1.111       .  S
C77          H83   1.087       .  S
C77          C78   1.361       .  D
C78         C108   1.462       .  S
C79          H84   1.087       .  S
C79          C80   1.365       .  D
C80         C125   1.488       .  S
C85          C86   1.535       .  S
C85          C91   1.544       .  S
C85          C89   1.525       .  S
C85         C176   1.539       .  S
C86          H93   1.087       .  S
C86          C87   1.366       .  D
C87          C88   1.546       .  S
C87         C128   1.489       .  S
C88          C92   1.540       .  S
C88          C90   1.543       .  S
C88          H94   1.109       .  S
C89         H631   1.086       .  S
C89          C90   1.361       .  D
C90         C124   1.461       .  S
C91          H96   1.084       .  S
C91          C92   1.372       .  D
C92         C140   1.492       .  S
H95         C625   1.086   1_545  S
O97         C107   1.280       .  A
O97       Ni1177   1.920       .  S
O98         C108   1.279       .  A
O98        Ni373   1.915   1_554  S
O99         C109   1.282       .  A
O99       Ni1445   1.921   1_554  S
O100        C110   1.280       .  A
O100       Ni105   1.917       .  S
O101        C110   1.278       .  A
O101       Ni106   1.908       .  S
O102        C109   1.278       .  A
O102      Ni1446   1.912   1_554  S
O103        C108   1.280       .  A
O103       Ni374   1.916   1_554  S
O104        C107   1.281       .  A
O104      Ni1178   1.918       .  S
Ni105      O1169   1.921       .  S
Ni105       O366   1.913       .  S
Ni105      O1439   1.918       .  S
Ni105      Ni106   2.395       .  S
Ni106      O1442   1.912       .  S
Ni106       O371   1.914       .  S
Ni106      O1176   1.924       .  S
O111        C121   1.280       .  A
O111       Ni387   1.915   1_554  S
O112        C658   1.280   1_545  A
O112       Ni119   1.919       .  S
O113        C123   1.280       .  A
O113       Ni119   1.916       .  S
O114        C660   1.278   1_545  A
O114       Ni387   1.914   1_554  S
O115        C660   1.281   1_545  A
O115       Ni388   1.919   1_554  S
O116        C123   1.278       .  A
O116       Ni120   1.911       .  S
O117        C658   1.280   1_545  A
O117       Ni120   1.914       .  S
O118        C121   1.277       .  A
O118       Ni388   1.907   1_554  S
Ni119       O379   1.921       .  S
Ni119       O382   1.918       .  S
Ni119      Ni120   2.395       .  S
Ni120       O383   1.915       .  S
Ni120       O386   1.915       .  S
C122        O648   1.280       .  A
C122        O653   1.278       .  A
C124        O650   1.279       .  A
C124        O651   1.280       .  A
C125        C126   1.405       .  A
C125        C130   1.412       .  A
C126        C127   1.410       .  A
C126        H135   1.084       .  S
C127        C128   1.415       .  A
C127        S399   1.803       .  S
C128        C129   1.404       .  A
C129        C130   1.399       .  A
C129        H136   1.083       .  S
C130        S132   1.809       .  S
S131        C395   1.802       .  S
S131        H134   1.405       .  S
S132        H133   1.407       .  S
C137        C138   1.401       .  A
C137        C142   1.407       .  A
C138        C139   1.406       .  A
C138        H147   1.081       .  S
C139        C140   1.418       .  A
C139        S143   1.803       .  S
C140        C141   1.406       .  A
C141        C142   1.394       .  A
C141        H148   1.084       .  S
C142        S412   1.803       .  S
S143        H146   1.407       .  S
S144        C410   1.803       .  S
S144        H145   1.408       .  S
C149        C150   1.404       .  A
C149        C154   1.409       .  A
C150        C151   1.406       .  A
C150        H159   1.084       .  S
C151        C152   1.410       .  A
C151        S423   1.800       .  S
C152        C153   1.400       .  A
C153        C154   1.395       .  A
C153        H160   1.084       .  S
C154        S156   1.801       .  S
S155        C419   1.800       .  S
S155        H158   1.406       .  S
S156        H157   1.406       .  S
C161        C162   1.405       .  A
C161        C166   1.415       .  A
C162        C163   1.400       .  A
C162        H171   1.083       .  S
C163        C164   1.411       .  A
C163        S167   1.806       .  S
C164        C165   1.401       .  A
C165        C166   1.401       .  A
C165        H172   1.084       .  S
C166        S436   1.791       .  S
S167        H170   1.407       .  S
S168        C434   1.792       .  S
S168        H169   1.404       .  S
C173        C174   1.408       .  A
C173        C178   1.415       .  A
C174        C175   1.397       .  A
C174        H719   1.084       .  S
C175        C176   1.419       .  A
C175        S715   1.803       .  S
C176        C177   1.412       .  A
C177        C178   1.407       .  A
C177        H184   1.079       .  S
C178        S180   1.808       .  S
S179        C711   1.810       .  S
S179        H182   1.406       .  S
S180        H181   1.406       .  S
H183        C710   1.082       .  S
C185        C186   1.406       .  A
C185        C190   1.421       .  A
C186        C187   1.397       .  A
C186        H195   1.082       .  S
C187        C188   1.418       .  A
C187        S191   1.802       .  S
C188        C189   1.406       .  A
C189        C190   1.397       .  A
C189        H196   1.084       .  S
C190        S192   1.806       .  S
S191        H194   1.406       .  S
S192        H193   1.402       .  S
C197        C198   1.403       .  A
C197        C202   1.413       .  A
C198        C199   1.392       .  A
C198        H207   1.084       .  S
C199        C200   1.415       .  A
C199        S203   1.814       .  S
C200        C201   1.404       .  A
C201        C202   1.406       .  A
C201        H208   1.084       .  S
C202        S204   1.802       .  S
S203        H206   1.407       .  S
S204        H205   1.399       .  S
C209        C210   1.409       .  A
C209        C214   1.422       .  A
C210        C211   1.393       .  A
C210        H219   1.082       .  S
C211        C212   1.421       .  A
C211        S215   1.813       .  S
C212        C213   1.413       .  A
C213        C214   1.410       .  A
C213        H220   1.077       .  S
C214        S216   1.798       .  S
S215        H218   1.406       .  S
S216        H217   1.407       .  S
C221        C222   1.397       .  A
C221        C226   1.409       .  A
C222        C223   1.398       .  A
C222        H231   1.077       .  S
C223        C224   1.413       .  A
C223        S227   1.806       .  S
C224        C225   1.404       .  A
C225        C226   1.402       .  A
C225        H232   1.084       .  S
C226        S228   1.801       .  S
S227        H230   1.407       .  S
S228        H229   1.405       .  S
C233        C234   1.410       .  A
C233        C238   1.427       .  A
C234        C235   1.391       .  A
C234        H243   1.082       .  S
C235        C236   1.419       .  A
C235        S239   1.818       .  S
C236        C237   1.409       .  A
C237        C238   1.412       .  A
C237        H244   1.075       .  S
C238        S240   1.804       .  S
S239        H242   1.406       .  S
S240        H241   1.406       .  S
C245        C246   1.402       .  A
C245        C250   1.413       .  A
C246        C247   1.404       .  A
C246        H255   1.081       .  S
C247        C248   1.418       .  A
C247        S251   1.796       .  S
C248        C249   1.405       .  A
C249        C250   1.398       .  A
C249        H256   1.083       .  S
C250        S252   1.809       .  S
S251        H254   1.404       .  S
S252        H253   1.407       .  S
C257        C258   1.400       .  A
C257        C262   1.411       .  A
C258        C259   1.407       .  A
C258        H267   1.080       .  S
C259        C260   1.417       .  A
C259        S263   1.801       .  S
C260        C261   1.405       .  A
C261        C262   1.396       .  A
C261        H268   1.084       .  S
C262        S264   1.804       .  S
S263        H266   1.407       .  S
S264        H265   1.407       .  S
C269        C270   1.528       .  S
C269        C275   1.530       .  S
C269        C273   1.546       .  S
C269        C504   1.534       .  S
C270        H277   1.087       .  S
C270        C271   1.361       .  D
C271        C272   1.547       .  S
C271        C525   1.485       .  S
C272        C276   1.539       .  S
C272        C274   1.541       .  S
C272        H278   1.111       .  S
C273        H279   1.083       .  S
C273        C274   1.371       .  D
C274        C391   1.461       .  S
C275        H280   1.087       .  S
C275        C276   1.363       .  D
C276        C513   1.488       .  S
C281        C282   1.536       .  S
C281        C287   1.537       .  S
C281        C285   1.541       .  S
C281        C477   1.546       .  S
C282        H289   1.087       .  S
C282        C283   1.373       .  D
C283        C284   1.540       .  S
C283        C516   1.502       .  S
C284        C288   1.544       .  S
C284        C286   1.543       .  S
C284        H290   1.104       .  S
C285        H291   1.081       .  S
C285        C286   1.370       .  D
C286        C375   1.465       .  S
C287        H292   1.087       .  S
C287        C288   1.355       .  D
C288        C492   1.480       .  S
C293        C294   1.529       .  S
C293        C299   1.548       .  S
C293        C297   1.520       .  S
C293        C453   1.530       .  S
C294        H301   1.086       .  S
C294        C295   1.362       .  D
C295        C296   1.544       .  S
C295        C465   1.479       .  S
C296        C300   1.542       .  S
C296        C298   1.546       .  S
C296        H302   1.109       .  S
C297        H303   1.087       .  S
C297        C298   1.360       .  D
C298        C378   1.457       .  S
C299        H304   1.085       .  S
C299        C300   1.372       .  D
C300        C528   1.498       .  S
C305        C306   1.550       .  S
C305        C311   1.537       .  S
C305        C309   1.522       .  S
C305        C441   1.532       .  S
C306        H313   1.083       .  S
C306        C307   1.370       .  D
C307        C308   1.534       .  S
C307        C489   1.484       .  S
C308        C312   1.536       .  S
C308        C310   1.541       .  S
C308        H314   1.112       .  S
C309        H851   1.087       .  S
C309        C310   1.361       .  D
C310        C390   1.452       .  S
C311        H316   1.087       .  S
C311        C312   1.361       .  D
C312        C468   1.478       .  S
H315        C845   1.087   1_545  S
C317        C318   1.531       .  S
C317        C323   1.543       .  S
C317        C321   1.539       .  S
C317        C501   1.544       .  S
C318        H325   1.088       .  S
C318        C319   1.359       .  D
C319        C320   1.542       .  S
C319        C420   1.479       .  S
C320        C324   1.542       .  S
C320        C322   1.546       .  S
C320        H326   1.107       .  S
C321        H327   1.078       .  S
C321        C322   1.368       .  D
C322        C389   1.466       .  S
C323        H328   1.087       .  S
C323        C324   1.367       .  D
C324        C429   1.498       .  S
C329        C330   1.538       .  S
C329        C335   1.532       .  S
C329        C333   1.548       .  S
C329        C480   1.541       .  S
C330        H337   1.086       .  S
C330        C331   1.368       .  D
C331        C332   1.536       .  S
C331        C405   1.483       .  S
C332        C336   1.537       .  S
C332        C334   1.539       .  S
C332        H338   1.111       .  S
C333        H339   1.083       .  S
C333        C334   1.374       .  D
C334        C377   1.467       .  S
C335        H340   1.087       .  S
C335        C336   1.357       .  D
C336        C417   1.480       .  S
C341        C342   1.542       .  S
C341        C347   1.539       .  S
C341        C345   1.524       .  S
C341        C456   1.531       .  S
C342        H349   1.084       .  S
C342        C343   1.369       .  D
C343        C344   1.539       .  S
C343        C432   1.488       .  S
C344        C348   1.542       .  S
C344        C346   1.542       .  S
C344        H350   1.111       .  S
C345        H351   1.087       .  S
C345        C346   1.361       .  D
C346        C376   1.458       .  S
C347        H352   1.087       .  S
C347        C348   1.364       .  D
C348        C393   1.483       .  S
C353        C354   1.533       .  S
C353        C359   1.542       .  S
C353        C357   1.526       .  S
C353        C444   1.532       .  S
C354        H361   1.087       .  S
C354        C355   1.362       .  D
C355        C356   1.545       .  S
C355        C396   1.483       .  S
C356        C360   1.543       .  S
C356        C358   1.542       .  S
C356        H362   1.109       .  S
C357        H899   1.087       .  S
C357        C358   1.362       .  D
C358        C392   1.462       .  S
C359        H364   1.084       .  S
C359        C360   1.372       .  D
C360        C408   1.495       .  S
H363        C893   1.086   1_545  S
O365        C375   1.279       .  A
O365      Ni1445   1.919       .  S
O366        C376   1.278       .  A
O367        C377   1.283       .  A
O367      Ni1177   1.925       .  S
O368        C378   1.280       .  A
O368       Ni373   1.915       .  S
O369        C378   1.278       .  A
O369       Ni374   1.910       .  S
O370        C377   1.278       .  A
O370      Ni1178   1.913       .  S
O371        C376   1.280       .  A
O372        C375   1.281       .  A
O372      Ni1446   1.917       .  S
Ni373      O1437   1.921       .  S
Ni373      O1171   1.917   1_556  S
Ni373      Ni374   2.395       .  S
Ni374      O1174   1.914   1_556  S
Ni374      O1444   1.924       .  S
O379        C389   1.281       .  A
O380        C926   1.279   1_545  A
O380       Ni387   1.914       .  S
O381        C391   1.279       .  A
O381       Ni387   1.913       .  S
O382        C928   1.280   1_545  A
O383        C928   1.280   1_545  A
O384        C391   1.280       .  A
O384       Ni388   1.918       .  S
O385        C926   1.278   1_545  A
O385       Ni388   1.903       .  S
O386        C389   1.279       .  A
Ni387      Ni388   2.396       .  S
C390        O916   1.279       .  A
C390        O921   1.277       .  A
C392        O918   1.279       .  A
C392        O919   1.280       .  A
C393        C394   1.404       .  A
C393        C398   1.411       .  A
C394        C395   1.407       .  A
C394        H403   1.084       .  S
C395        C396   1.413       .  A
C396        C397   1.403       .  A
C397        C398   1.398       .  A
C397        H404   1.084       .  S
C398        S400   1.808       .  S
S399        H402   1.403       .  S
S400        H401   1.407       .  S
C405        C406   1.401       .  A
C405        C410   1.408       .  A
C406        C407   1.406       .  A
C406        H415   1.082       .  S
C407        C408   1.418       .  A
C407        S411   1.803       .  S
C408        C409   1.407       .  A
C409        C410   1.395       .  A
C409        H416   1.084       .  S
S411        H414   1.407       .  S
S412        H413   1.408       .  S
C417        C418   1.405       .  A
C417        C422   1.409       .  A
C418        C419   1.406       .  A
C418        H427   1.084       .  S
C419        C420   1.410       .  A
C420        C421   1.400       .  A
C421        C422   1.395       .  A
C421        H428   1.084       .  S
C422        S424   1.802       .  S
S423        H426   1.406       .  S
S424        H425   1.404       .  S
C429        C430   1.406       .  A
C429        C434   1.415       .  A
C430        C431   1.401       .  A
C430        H439   1.083       .  S
C431        C432   1.411       .  A
C431        S435   1.806       .  S
C432        C433   1.403       .  A
C433        C434   1.403       .  A
C433        H440   1.083       .  S
S435        H438   1.407       .  S
S436        H437   1.404   1_554  S
C441        C442   1.408       .  A
C441        C446   1.413       .  A
C442        C443   1.400       .  A
C442        H987   1.083       .  S
C443        C444   1.416       .  A
C443        S983   1.810       .  S
C444        C445   1.410       .  A
C445        C446   1.403       .  A
C445        H452   1.079       .  S
C446        S448   1.808       .  S
S447        C979   1.809       .  S
S447        H450   1.406       .  S
S448        H449   1.406       .  S
H451        C978   1.082       .  S
C453        C454   1.406       .  A
C453        C458   1.421       .  A
C454        C455   1.397       .  A
C454        H463   1.083       .  S
C455        C456   1.417       .  A
C455        S459   1.802       .  S
C456        C457   1.406       .  A
C457        C458   1.397       .  A
C457        H464   1.083       .  S
C458        S460   1.806       .  S
S459        H462   1.406       .  S
S460        H461   1.403       .  S
C465        C466   1.402       .  A
C465        C470   1.412       .  A
C466        C467   1.391       .  A
C466        H475   1.084       .  S
C467        C468   1.414       .  A
C467        S471   1.812       .  S
C468        C469   1.404       .  A
C469        C470   1.405       .  A
C469        H476   1.084       .  S
C470        S472   1.801       .  S
S471        H474   1.407       .  S
S472        H473   1.401       .  S
C477        C478   1.405       .  A
C477        C482   1.424       .  A
C478        C479   1.390       .  A
C478        H487   1.082       .  S
C479        C480   1.422       .  A
C479        S483   1.812       .  S
C480        C481   1.413       .  A
C481        C482   1.413       .  A
C481        H488   1.079       .  S
C482        S484   1.799       .  S
S483        H486   1.407       .  S
S484        H485   1.407       .  S
C489        C490   1.397       .  A
C489        C494   1.410       .  A
C490        C491   1.399       .  A
C490        H499   1.078       .  S
C491        C492   1.413       .  A
C491        S495   1.805       .  S
C492        C493   1.405       .  A
C493        C494   1.403       .  A
C493        H500   1.084       .  S
C494        S496   1.801       .  S
S495        H498   1.407       .  S
S496        H497   1.406       .  S
C501        C502   1.409       .  A
C501        C506   1.424       .  A
C502        C503   1.389       .  A
C502        H511   1.082       .  S
C503        C504   1.419       .  A
C503        S507   1.818       .  S
C504        C505   1.411       .  A
C505        C506   1.414       .  A
C505        H512   1.076       .  S
C506        S508   1.806       .  S
S507        H510   1.407       .  S
S508        H509   1.406       .  S
C513        C514   1.402       .  A
C513        C518   1.412       .  A
C514        C515   1.405       .  A
C514        H523   1.080       .  S
C515        C516   1.418       .  A
C515        S519   1.795       .  S
C516        C517   1.404       .  A
C517        C518   1.398       .  A
C517        H524   1.083       .  S
C518        S520   1.808       .  S
S519        H522   1.403       .  S
S520        H521   1.407       .  S
C525        C526   1.399       .  A
C525        C530   1.412       .  A
C526        C527   1.406       .  A
C526        H535   1.079       .  S
C527        C528   1.418       .  A
C527        S531   1.801       .  S
C528        C529   1.406       .  A
C529        C530   1.399       .  A
C529        H536   1.084       .  S
C530        S532   1.803       .  S
S531        H534   1.407       .  S
S532        H533   1.407       .  S
C537        C538   1.530       .  S
C537        C543   1.533       .  S
C537        C541   1.548       .  S
C537        C772   1.537       .  S
C538        H545   1.087       .  S
C538        C539   1.361       .  D
C539        C540   1.540       .  S
C539        C793   1.480       .  S
C540        C544   1.537       .  S
C540        C542   1.535       .  S
C540        H546   1.111       .  S
C541        H547   1.082       .  S
C541        C542   1.369       .  D
C542        C659   1.459       .  S
C543        H548   1.087       .  S
C543        C544   1.365       .  D
C544        C781   1.486       .  S
C549        C550   1.534       .  S
C549        C555   1.537       .  S
C549        C553   1.542       .  S
C549        C745   1.546       .  S
C550        H557   1.087       .  S
C550        C551   1.371       .  D
C551        C552   1.541       .  S
C551        C784   1.500       .  S
C552        C556   1.539       .  S
C552        C554   1.539       .  S
C552        H558   1.104       .  S
C553        H559   1.079       .  S
C553        C554   1.371       .  D
C554        C643   1.463       .  S
C555        H560   1.088       .  S
C555        C556   1.356       .  D
C556        C760   1.475       .  S
C561        C562   1.530       .  S
C561        C567   1.546       .  S
C561        C565   1.522       .  S
C561        C721   1.532       .  S
C562        H569   1.086       .  S
C562        C563   1.364       .  D
C563        C564   1.545       .  S
C563        C733   1.480       .  S
C564        C568   1.538       .  S
C564        C566   1.546       .  S
C564        H570   1.110       .  S
C565        H571   1.087       .  S
C565        C566   1.362       .  D
C566        C646   1.459       .  S
C567        H572   1.086       .  S
C567        C568   1.369       .  D
C568        C796   1.493       .  S
C573        C574   1.550       .  S
C573        C579   1.536       .  S
C573        C577   1.529       .  S
C573        C709   1.540       .  S
C574        H581   1.083       .  S
C574        C575   1.371       .  D
C575        C576   1.533       .  S
C575        C757   1.480       .  S
C576        C580   1.537       .  S
C576        C578   1.542       .  S
C576        H582   1.111       .  S
C577        C578   1.367       .  D
C578        C658   1.464       .  S
C579        H584   1.087       .  S
C579        C580   1.358       .  D
C580        C736   1.480       .  S
C585        C586   1.532       .  S
C585        C591   1.541       .  S
C585        C589   1.542       .  S
C585        C769   1.547       .  S
C586        H593   1.088       .  S
C586        C587   1.359       .  D
C587        C588   1.538       .  S
C587        C688   1.475       .  S
C588        C592   1.536       .  S
C588        C590   1.537       .  S
C588        H594   1.107       .  S
C589        H595   1.076       .  S
C589        C590   1.369       .  D
C590        C657   1.457       .  S
C591        H596   1.087       .  S
C591        C592   1.367       .  D
C592        C697   1.491       .  S
C597        C598   1.540       .  S
C597        C603   1.535       .  S
C597        C601   1.548       .  S
C597        C748   1.543       .  S
C598        H605   1.086       .  S
C598        C599   1.369       .  D
C599        C600   1.529       .  S
C599        C673   1.481       .  S
C600        C604   1.535       .  S
C600        C602   1.535       .  S
C600        H606   1.111       .  S
C601        H607   1.083       .  S
C601        C602   1.370       .  D
C602        C645   1.461       .  S
C603        H608   1.087       .  S
C603        C604   1.360       .  D
C604        C685   1.477       .  S
C609        C610   1.543       .  S
C609        C615   1.538       .  S
C609        C613   1.526       .  S
C609        C724   1.531       .  S
C610        H617   1.083       .  S
C610        C611   1.370       .  D
C611        C612   1.536       .  S
C611        C700   1.485       .  S
C612        C616   1.544       .  S
C612        C614   1.542       .  S
C612        H618   1.111       .  S
C613        H619   1.087       .  S
C613        C614   1.361       .  D
C614        C644   1.461       .  S
C615        H620   1.087       .  S
C615        C616   1.363       .  D
C616        C661   1.486       .  S
C621        C622   1.538       .  S
C621        C627   1.539       .  S
C621        C625   1.528       .  S
C621        C712   1.540       .  S
C622        H629   1.086       .  S
C622        C623   1.368       .  D
C623        C624   1.547       .  S
C623        C664   1.489       .  S
C624        C628   1.540       .  S
C624        C626   1.541       .  S
C624        H630   1.108       .  S
C625        C626   1.362       .  D
C626        C660   1.463       .  S
C627        H632   1.083       .  S
C627        C628   1.370       .  D
C628        C676   1.492       .  S
O633        C643   1.279       .  A
O633      Ni1713   1.914   1_455  S
O634        C644   1.279       .  A
O634       Ni909   1.918   1_554  S
O635        C645   1.281       .  A
O635      Ni1981   1.916   1_454  S
O636        C646   1.280       .  A
O636       Ni641   1.918       .  S
O637        C646   1.278       .  A
O637       Ni642   1.908       .  S
O638        C645   1.278       .  A
O638      Ni1982   1.914   1_454  S
O639        C644   1.280       .  A
O639       Ni910   1.912   1_554  S
O640        C643   1.281       .  A
O640      Ni1714   1.918   1_455  S
Ni641      O1705   1.913       .  S
Ni641       O902   1.914       .  S
Ni641      O1975   1.916       .  S
Ni641      Ni642   2.395       .  S
Ni642      O1978   1.920       .  S
Ni642       O907   1.915       .  S
Ni642      O1712   1.925       .  S
O647        C657   1.281       .  A
O647       Ni923   1.917   1_554  S
O648       Ni655   1.920       .  S
O649        C659   1.279       .  A
O649       Ni655   1.914       .  S
O650       Ni923   1.916   1_554  S
O651       Ni924   1.913   1_554  S
O652        C659   1.279       .  A
O652       Ni656   1.912       .  S
O653       Ni656   1.908       .  S
O654        C657   1.277       .  A
O654       Ni924   1.906   1_554  S
Ni655       O915   1.922       .  S
Ni655       O918   1.918       .  S
Ni655      Ni656   2.395       .  S
Ni656       O919   1.912       .  S
Ni656       O922   1.914       .  S
C661        C662   1.403       .  A
C661        C666   1.412       .  A
C662        C663   1.407       .  A
C662        H671   1.084       .  S
C663        C664   1.413       .  A
C663        S935   1.798       .  S
C664        C665   1.404       .  A
C665        C666   1.402       .  A
C665        H672   1.083       .  S
C666        S668   1.808       .  S
S667        C931   1.798       .  S
S667        H670   1.403       .  S
S668        H669   1.406       .  S
C673        C674   1.402       .  A
C673        C678   1.407       .  A
C674        C675   1.406       .  A
C674        H683   1.081       .  S
C675        C676   1.417       .  A
C675        S679   1.804       .  S
C676        C677   1.407       .  A
C677        C678   1.393       .  A
C677        H684   1.084       .  S
C678        S948   1.803       .  S
S679        H682   1.407   1_554  S
S680        C946   1.804       .  S
S680        H681   1.407       .  S
C685        C686   1.404       .  A
C685        C690   1.410       .  A
C686        C687   1.405       .  A
C686        H695   1.084       .  S
C687        C688   1.410       .  A
C687        S959   1.800       .  S
C688        C689   1.399       .  A
C689        C690   1.393       .  A
C689        H696   1.084       .  S
C690        S692   1.800       .  S
S691        C955   1.800       .  S
S691        H694   1.407       .  S
S692        H693   1.407       .  S
C697        C698   1.405       .  A
C697        C702   1.413       .  A
C698        C699   1.400       .  A
C698        H707   1.083       .  S
C699        C700   1.411       .  A
C699        S703   1.807       .  S
C700        C701   1.403       .  A
C701        C702   1.399       .  A
C701        H708   1.083       .  S
C702        S972   1.792       .  S
S703        H706   1.407       .  S
S704        C970   1.793       .  S
S704        H705   1.404       .  S
C709        C710   1.410       .  A
C709        C714   1.413       .  A
C710        C711   1.404       .  A
C711        C712   1.417       .  A
C712        C713   1.413       .  A
C713        C714   1.406       .  A
C713        H720   1.078       .  S
C714        S716   1.808       .  S
S715        H718   1.402       .  S
S716        H717   1.406       .  S
C721        C722   1.407       .  A
C721        C726   1.419       .  A
C722        C723   1.398       .  A
C722        H731   1.083       .  S
C723        C724   1.418       .  A
C723        S727   1.802       .  S
C724        C725   1.406       .  A
C725        C726   1.397       .  A
C725        H732   1.084       .  S
C726        S728   1.805       .  S
S727        H730   1.406       .  S
S728        H729   1.404       .  S
C733        C734   1.402       .  A
C733        C738   1.412       .  A
C734        C735   1.391       .  A
C734        H743   1.084       .  S
C735        C736   1.416       .  A
C735        S739   1.814       .  S
C736        C737   1.404       .  A
C737        C738   1.406       .  A
C737        H744   1.084       .  S
C738        S740   1.802       .  S
S739        H742   1.407       .  S
S740        H741   1.401       .  S
C745        C746   1.407       .  A
C745        C750   1.422       .  A
C746        C747   1.391       .  A
C746        H755   1.082       .  S
C747        C748   1.421       .  A
C747        S751   1.811       .  S
C748        C749   1.414       .  A
C749        C750   1.412       .  A
C749        H756   1.078       .  S
C750        S752   1.797       .  S
S751        H754   1.407       .  S
S752        H753   1.408       .  S
C757        C758   1.396       .  A
C757        C762   1.410       .  A
C758        C759   1.396       .  A
C758        H767   1.076       .  S
C759        C760   1.412       .  A
C759        S763   1.807       .  S
C760        C761   1.404       .  A
C761        C762   1.403       .  A
C761        H768   1.084       .  S
C762        S764   1.801       .  S
S763        H766   1.407       .  S
S764        H765   1.406       .  S
C769        C770   1.411       .  A
C769        C774   1.424       .  A
C770        C771   1.391       .  A
C770        H779   1.083       .  S
C771        C772   1.418       .  A
C771        S775   1.816       .  S
C772        C773   1.411       .  A
C773        C774   1.413       .  A
C773        H780   1.075       .  S
C774        S776   1.804       .  S
S775        H778   1.407       .  S
S776        H777   1.406       .  S
C781        C782   1.402       .  A
C781        C786   1.411       .  A
C782        C783   1.404       .  A
C782        H791   1.080       .  S
C783        C784   1.416       .  A
C783        S787   1.797       .  S
C784        C785   1.406       .  A
C785        C786   1.399       .  A
C785        H792   1.083       .  S
C786        S788   1.808       .  S
S787        H790   1.403       .  S
S788        H789   1.407       .  S
C793        C794   1.399       .  A
C793        C798   1.410       .  A
C794        C795   1.406       .  A
C794        H803   1.079       .  S
C795        C796   1.417       .  A
C795        S799   1.802       .  S
C796        C797   1.405       .  A
C797        C798   1.396       .  A
C797        H804   1.084       .  S
C798        S800   1.804       .  S
S799        H802   1.407       .  S
S800        H801   1.407       .  S
C805        C806   1.527       .  S
C805        C811   1.532       .  S
C805        C809   1.548       .  S
C805       C1040   1.537       .  S
C806        H813   1.087       .  S
C806        C807   1.360       .  D
C807        C808   1.543       .  S
C807       C1061   1.484       .  S
C808        C812   1.540       .  S
C808        C810   1.538       .  S
C808        H814   1.111       .  S
C809        H815   1.083       .  S
C809        C810   1.370       .  D
C810        C927   1.464       .  S
C811        H816   1.086       .  S
C811        C812   1.366       .  D
C812       C1049   1.485       .  S
C817        C818   1.536       .  S
C817        C823   1.536       .  S
C817        C821   1.543       .  S
C817       C1013   1.547       .  S
C818        H825   1.087       .  S
C818        C819   1.373       .  D
C819        C820   1.537       .  S
C819       C1052   1.496       .  S
C820        C824   1.539       .  S
C820        C822   1.538       .  S
C820        H826   1.105       .  S
C821        H827   1.080       .  S
C821        C822   1.370       .  D
C822        C911   1.462       .  S
C823        H828   1.088       .  S
C823        C824   1.355       .  D
C824       C1028   1.474       .  S
C829        C830   1.531       .  S
C829        C835   1.547       .  S
C829        C833   1.516       .  S
C829        C989   1.528       .  S
C830        H837   1.086       .  S
C830        C831   1.367       .  D
C831        C832   1.548       .  S
C831       C1001   1.481       .  S
C832        C836   1.538       .  S
C832        C834   1.548       .  S
C832        H838   1.109       .  S
C833        H839   1.087       .  S
C833        C834   1.358       .  D
C834        C914   1.456       .  S
C835        H840   1.086       .  S
C835        C836   1.369       .  D
C836       C1064   1.498       .  S
C841        C842   1.549       .  S
C841        C847   1.538       .  S
C841        C845   1.524       .  S
C841        C977   1.535       .  S
C842        H849   1.082       .  S
C842        C843   1.372       .  D
C843        C844   1.533       .  S
C843       C1025   1.478       .  S
C844        C848   1.535       .  S
C844        C846   1.537       .  S
C844        H850   1.112       .  S
C845        C846   1.361       .  D
C846        C926   1.453       .  S
C847        H852   1.087       .  S
C847        C848   1.361       .  D
C848       C1004   1.481       .  S
C853        C854   1.535       .  S
C853        C859   1.534       .  S
C853        C857   1.540       .  S
C853       C1037   1.544       .  S
C854        H861   1.088       .  S
C854        C855   1.360       .  D
C855        C856   1.543       .  S
C855        C956   1.476       .  S
C856        C860   1.539       .  S
C856        C858   1.546       .  S
C856        H862   1.107       .  S
C857        H863   1.080       .  S
C857        C858   1.370       .  D
C858        C925   1.466       .  S
C859        H864   1.087       .  S
C859        C860   1.365       .  D
C860        C965   1.495       .  S
C865        C866   1.541       .  S
C865        C871   1.534       .  S
C865        C869   1.550       .  S
C865       C1016   1.545       .  S
C866        H873   1.086       .  S
C866        C867   1.369       .  D
C867        C868   1.530       .  S
C867        C941   1.482       .  S
C868        C872   1.534       .  S
C868        C870   1.536       .  S
C868        H874   1.111       .  S
C869        H875   1.083       .  S
C869        C870   1.372       .  D
C870        C913   1.465       .  S
C871        H876   1.087       .  S
C871        C872   1.359       .  D
C872        C953   1.477       .  S
C877        C878   1.546       .  S
C877        C883   1.537       .  S
C877        C881   1.523       .  S
C877        C992   1.529       .  S
C878        H885   1.084       .  S
C878        C879   1.371       .  D
C879        C880   1.537       .  S
C879        C968   1.490       .  S
C880        C884   1.545       .  S
C880        C882   1.543       .  S
C880        H886   1.111       .  S
C881        H887   1.087       .  S
C881        C882   1.360       .  D
C882        C912   1.460       .  S
C883        H888   1.087       .  S
C883        C884   1.361       .  D
C884        C929   1.484       .  S
C889        C890   1.538       .  S
C889        C895   1.537       .  S
C889        C893   1.529       .  S
C889        C980   1.537       .  S
C890        H897   1.087       .  S
C890        C891   1.367       .  D
C891        C892   1.546       .  S
C891        C932   1.488       .  S
C892        C896   1.543       .  S
C892        C894   1.541       .  S
C892        H898   1.108       .  S
C893        C894   1.364       .  D
C894        C928   1.464       .  S
C895        H900   1.083       .  S
C895        C896   1.368       .  D
C896        C944   1.494       .  S
O901        C911   1.277       .  A
O901      Ni1981   1.909   1_455  S
O902        C912   1.279       .  A
O903        C913   1.281       .  A
O903      Ni1713   1.917   1_455  S
O904        C914   1.279       .  A
O904       Ni909   1.914       .  S
O905        C914   1.278       .  A
O905       Ni910   1.909       .  S
O906        C913   1.279       .  A
O906      Ni1714   1.919   1_455  S
O907        C912   1.280       .  A
O908        C911   1.282       .  A
O908      Ni1982   1.921   1_455  S
Ni909      O1973   1.922       .  S
Ni909      O1707   1.910   1_556  S
Ni909      Ni910   2.395       .  S
Ni910      O1710   1.919   1_556  S
Ni910      O1980   1.926       .  S
O915        C925   1.281       .  A
O916       Ni923   1.916       .  S
O917        C927   1.279       .  A
O917       Ni923   1.918       .  S
O920        C927   1.280       .  A
O920       Ni924   1.916       .  S
O921       Ni924   1.900       .  S
O922        C925   1.279       .  A
Ni923      Ni924   2.396       .  S
C929        C930   1.403       .  A
C929        C934   1.413       .  A
C930        C931   1.406       .  A
C930        H939   1.084       .  S
C931        C932   1.413       .  A
C932        C933   1.403       .  A
C933        C934   1.401       .  A
C933        H940   1.083       .  S
C934        S936   1.809       .  S
S935        H938   1.403       .  S
S936        H937   1.406       .  S
C941        C942   1.402       .  A
C941        C946   1.407       .  A
C942        C943   1.405       .  A
C942        H951   1.081       .  S
C943        C944   1.416       .  A
C943        S947   1.804       .  S
C944        C945   1.409       .  A
C945        C946   1.394       .  A
C945        H952   1.084       .  S
S947        H950   1.407       .  S
S948        H949   1.407       .  S
C953        C954   1.404       .  A
C953        C958   1.410       .  A
C954        C955   1.405       .  A
C954        H963   1.084       .  S
C955        C956   1.410       .  A
C956        C957   1.400       .  A
C957        C958   1.393       .  A
C957        H964   1.083       .  S
C958        S960   1.802       .  S
S959        H962   1.407       .  S
S960        H961   1.407       .  S
C965        C966   1.406       .  A
C965        C970   1.414       .  A
C966        C967   1.401       .  A
C966        H975   1.083       .  S
C967        C968   1.411       .  A
C967        S971   1.806       .  S
C968        C969   1.405       .  A
C969        C970   1.402       .  A
C969        H976   1.083       .  S
S971        H974   1.407       .  S
S972        H973   1.405   1_554  S
C977        C978   1.410       .  A
C977        C982   1.414       .  A
C978        C979   1.401       .  A
C979        C980   1.414       .  A
C980        C981   1.413       .  A
C981        C982   1.404       .  A
C981        H988   1.078       .  S
C982        S984   1.808       .  S
S983        H986   1.407       .  S
S984        H985   1.406       .  S
C989        C990   1.406       .  A
C989        C994   1.417       .  A
C990        C991   1.396       .  A
C990        H999   1.083       .  S
C991        C992   1.417       .  A
C991        S995   1.802       .  S
C992        C993   1.408       .  A
C993        C994   1.397       .  A
C993       H1000   1.083       .  S
C994        S996   1.805       .  S
S995        H998   1.405       .  S
S996        H997   1.406       .  S
C1001      C1002   1.403       .  A
C1001      C1006   1.411       .  A
C1002      C1003   1.392       .  A
C1002      H1011   1.083       .  S
C1003      C1004   1.414       .  A
C1003      S1007   1.813       .  S
C1004      C1005   1.405       .  A
C1005      C1006   1.406       .  A
C1005      H1012   1.084       .  S
C1006      S1008   1.802       .  S
S1007      H1010   1.406       .  S
S1008      H1009   1.403       .  S
C1013      C1014   1.407       .  A
C1013      C1018   1.422       .  A
C1014      C1015   1.393       .  A
C1014      H1023   1.082       .  S
C1015      C1016   1.422       .  A
C1015      S1019   1.811       .  S
C1016      C1017   1.413       .  A
C1017      C1018   1.412       .  A
C1017      H1024   1.078       .  S
C1018      S1020   1.797       .  S
S1019      H1022   1.407       .  S
S1020      H1021   1.408       .  S
C1025      C1026   1.397       .  A
C1025      C1030   1.410       .  A
C1026      C1027   1.395       .  A
C1026      H1035   1.078       .  S
C1027      C1028   1.412       .  A
C1027      S1031   1.807       .  S
C1028      C1029   1.404       .  A
C1029      C1030   1.403       .  A
C1029      H1036   1.084       .  S
C1030      S1032   1.802       .  S
S1031      H1034   1.407       .  S
S1032      H1033   1.407       .  S
C1037      C1038   1.411       .  A
C1037      C1042   1.422       .  A
C1038      C1039   1.392       .  A
C1038      H1047   1.082       .  S
C1039      C1040   1.419       .  A
C1039      S1043   1.816       .  S
C1040      C1041   1.411       .  A
C1041      C1042   1.412       .  A
C1041      H1048   1.076       .  S
C1042      S1044   1.804       .  S
S1043      H1046   1.408       .  S
S1044      H1045   1.405       .  S
C1049      C1050   1.402       .  A
C1049      C1054   1.412       .  A
C1050      C1051   1.403       .  A
C1050      H1059   1.081       .  S
C1051      C1052   1.416       .  A
C1051      S1055   1.796       .  S
C1052      C1053   1.404       .  A
C1053      C1054   1.398       .  A
C1053      H1060   1.083       .  S
C1054      S1056   1.808       .  S
S1055      H1058   1.402       .  S
S1056      H1057   1.407       .  S
C1061      C1062   1.400       .  A
C1061      C1066   1.412       .  A
C1062      C1063   1.409       .  A
C1062      H1071   1.080       .  S
C1063      C1064   1.419       .  A
C1063      S1067   1.802       .  S
C1064      C1065   1.405       .  A
C1065      C1066   1.395       .  A
C1065      H1072   1.084       .  S
C1066      S1068   1.804       .  S
S1067      H1070   1.407       .  S
S1068      H1069   1.406       .  S
C1073      C1074   1.531       .  S
C1073      C1079   1.533       .  S
C1073      C1077   1.551       .  S
C1073      C1308   1.542       .  S
C1074      H1081   1.087       .  S
C1074      C1075   1.363       .  D
C1075      C1076   1.540       .  S
C1075      C1329   1.481       .  S
C1076      C1080   1.539       .  S
C1076      C1078   1.535       .  S
C1076      H1082   1.111       .  S
C1077      H1083   1.083       .  S
C1077      C1078   1.372       .  D
C1078      C1195   1.463       .  S
C1079      H1084   1.087       .  S
C1079      C1080   1.365       .  D
C1080      C1317   1.489       .  S
C1085      C1086   1.533       .  S
C1085      C1091   1.536       .  S
C1085      C1089   1.542       .  S
C1085      C1281   1.545       .  S
C1086      H1093   1.087       .  S
C1086      C1087   1.372       .  D
C1087      C1088   1.545       .  S
C1087      C1320   1.504       .  S
C1088      C1092   1.546       .  S
C1088      C1090   1.546       .  S
C1088      H1094   1.104       .  S
C1089      H1095   1.081       .  S
C1089      C1090   1.370       .  D
C1090      C1179   1.471       .  S
C1091      H1096   1.087       .  S
C1091      C1092   1.355       .  D
C1092      C1296   1.482       .  S
C1097      C1098   1.531       .  S
C1097      C1103   1.544       .  S
C1097      C1101   1.524       .  S
C1097      C1257   1.535       .  S
C1098      H1105   1.087       .  S
C1098      C1099   1.363       .  D
C1099      C1100   1.540       .  S
C1099      C1269   1.479       .  S
C1100      C1104   1.544       .  S
C1100      C1102   1.543       .  S
C1100      H1106   1.110       .  S
C1101      H1107   1.086       .  S
C1101      C1102   1.361       .  D
C1102      C1182   1.459       .  S
C1103      H1108   1.084       .  S
C1103      C1104   1.373       .  D
C1104      C1332   1.496       .  S
C1109      C1110   1.551       .  S
C1109      C1115   1.535       .  S
C1109      C1113   1.523       .  S
C1109      C1245   1.535       .  S
C1110      H1117   1.083       .  S
C1110      C1111   1.372       .  D
C1111      C1112   1.535       .  S
C1111      C1293   1.486       .  S
C1112      C1116   1.539       .  S
C1112      C1114   1.546       .  S
C1112      H1118   1.111       .  S
C1113      H1655   1.087       .  S
C1113      C1114   1.362       .  D
C1114      C1194   1.460       .  S
C1115      H1120   1.087       .  S
C1115      C1116   1.359       .  D
C1116      C1272   1.481       .  S
H1119      C1649   1.087   1_545  S
C1121      C1122   1.533       .  S
C1121      C1127   1.544       .  S
C1121      C1125   1.540       .  S
C1121      C1305   1.551       .  S
C1122      H1129   1.088       .  S
C1122      C1123   1.363       .  D
C1123      C1124   1.538       .  S
C1123      C1224   1.476       .  S
C1124      C1128   1.538       .  S
C1124      C1126   1.540       .  S
C1124      H1130   1.108       .  S
C1125      H1131   1.077       .  S
C1125      C1126   1.367       .  D
C1126      C1193   1.461       .  S
C1127      H1132   1.087       .  S
C1127      C1128   1.369       .  D
C1128      C1233   1.494       .  S
C1133      C1134   1.538       .  S
C1133      C1139   1.533       .  S
C1133      C1137   1.546       .  S
C1133      C1284   1.541       .  S
C1134      H1141   1.086       .  S
C1134      C1135   1.368       .  D
C1135      C1136   1.534       .  S
C1135      C1209   1.484       .  S
C1136      C1140   1.535       .  S
C1136      C1138   1.538       .  S
C1136      H1142   1.111       .  S
C1137      H1143   1.083       .  S
C1137      C1138   1.370       .  D
C1138      C1181   1.462       .  S
C1139      H1144   1.087       .  S
C1139      C1140   1.360       .  D
C1140      C1221   1.477       .  S
C1145      C1146   1.541       .  S
C1145      C1151   1.540       .  S
C1145      C1149   1.528       .  S
C1145      C1260   1.535       .  S
C1146      H1153   1.083       .  S
C1146      C1147   1.370       .  D
C1147      C1148   1.539       .  S
C1147      C1236   1.486       .  S
C1148      C1152   1.541       .  S
C1148      C1150   1.542       .  S
C1148      H1154   1.111       .  S
C1149      H1155   1.087       .  S
C1149      C1150   1.363       .  D
C1150      C1180   1.462       .  S
C1151      H1156   1.087       .  S
C1151      C1152   1.362       .  D
C1152      C1197   1.483       .  S
C1157      C1158   1.537       .  S
C1157      C1163   1.542       .  S
C1157      C1161   1.527       .  S
C1157      C1248   1.537       .  S
C1158      H1165   1.086       .  S
C1158      C1159   1.366       .  D
C1159      C1160   1.545       .  S
C1159      C1200   1.484       .  S
C1160      C1164   1.541       .  S
C1160      C1162   1.540       .  S
C1160      H1166   1.109       .  S
C1161      H1703   1.086       .  S
C1161      C1162   1.361       .  D
C1162      C1196   1.459       .  S
C1163      H1168   1.084       .  S
C1163      C1164   1.369       .  D
C1164      C1212   1.494       .  S
H1167      C1697   1.086   1_545  S
O1169      C1179   1.280       .  A
O1170      C1180   1.279       .  A
O1170     Ni1445   1.915   1_654  S
O1171      C1181   1.281       .  A
O1172      C1182   1.280       .  A
O1172     Ni1177   1.917   1_655  S
O1173      C1182   1.278       .  A
O1173     Ni1178   1.909   1_655  S
O1174      C1181   1.278       .  A
O1175      C1180   1.281       .  A
O1175     Ni1446   1.917   1_654  S
O1176      C1179   1.282       .  A
Ni1177     O1438   1.913   1_455  S
Ni1177    Ni1178   2.395       .  S
Ni1178     O1443   1.913   1_455  S
O1183      C1193   1.279       .  A
O1183     Ni1459   1.915   1_554  S
O1184      C1730   1.280       .  A
O1184     Ni1191   1.917   1_565  S
O1185      C1195   1.281       .  A
O1185     Ni1191   1.920       .  S
O1186      C1732   1.280       .  A
O1186     Ni1459   1.919   1_564  S
O1187      C1732   1.279   1_545  A
O1187     Ni1460   1.914   1_554  S
O1188      C1195   1.279       .  A
O1188     Ni1192   1.913       .  S
O1189      C1730   1.278   1_545  A
O1189     Ni1192   1.907       .  S
O1190      C1193   1.279       .  A
O1190     Ni1460   1.913   1_554  S
Ni1191     O1451   1.920       .  S
Ni1191     O1454   1.918   1_545  S
Ni1191    Ni1192   2.395       .  S
Ni1192     O1455   1.914       .  S
Ni1192     O1458   1.912       .  S
C1194      O1720   1.281       .  A
C1194      O1725   1.277       .  A
C1196      O1722   1.280       .  A
C1196      O1723   1.278       .  A
C1197      C1198   1.404       .  A
C1197      C1202   1.412       .  A
C1198      C1199   1.407       .  A
C1198      H1207   1.084       .  S
C1199      C1200   1.413       .  A
C1199      S1471   1.801       .  S
C1200      C1201   1.402       .  A
C1201      C1202   1.399       .  A
C1201      H1208   1.083       .  S
C1202      S1204   1.808       .  S
S1203      C1467   1.802       .  S
S1203      H1206   1.404       .  S
S1204      H1205   1.406       .  S
C1209      C1210   1.402       .  A
C1209      C1214   1.407       .  A
C1210      C1211   1.408       .  A
C1210      H1219   1.082       .  S
C1211      C1212   1.417       .  A
C1211      S1215   1.803       .  S
C1212      C1213   1.407       .  A
C1213      C1214   1.394       .  A
C1213      H1220   1.084       .  S
C1214      S1484   1.803       .  S
S1215      H1218   1.407       .  S
S1216      C1482   1.803       .  S
S1216      H1217   1.407       .  S
C1221      C1222   1.405       .  A
C1221      C1226   1.408       .  A
C1222      C1223   1.406       .  A
C1222      H1231   1.084       .  S
C1223      C1224   1.410       .  A
C1223      S1495   1.800       .  S
C1224      C1225   1.398       .  A
C1225      C1226   1.391       .  A
C1225      H1232   1.084       .  S
C1226      S1228   1.800       .  S
S1227      C1491   1.800       .  S
S1227      H1230   1.406       .  S
S1228      H1229   1.406       .  S
C1233      C1234   1.404       .  A
C1233      C1238   1.416       .  A
C1234      C1235   1.400       .  A
C1234      H1243   1.083       .  S
C1235      C1236   1.410       .  A
C1235      S1239   1.806       .  S
C1236      C1237   1.402       .  A
C1237      C1238   1.403       .  A
C1237      H1244   1.084       .  S
C1238      S1508   1.793       .  S
S1239      H1242   1.407       .  S
S1240      C1506   1.793       .  S
S1240      H1241   1.402       .  S
C1245      C1246   1.409       .  A
C1245      C1250   1.414       .  A
C1246      C1247   1.397       .  A
C1246      H1791   1.084       .  S
C1247      C1248   1.418       .  A
C1247      S1787   1.804       .  S
C1248      C1249   1.412       .  A
C1249      C1250   1.405       .  A
C1249      H1256   1.079       .  S
C1250      S1252   1.808       .  S
S1251      C1783   1.805       .  S
S1251      H1254   1.400       .  S
S1252      H1253   1.406       .  S
H1255      C1782   1.084       .  S
C1257      C1258   1.409       .  A
C1257      C1262   1.422       .  A
C1258      C1259   1.400       .  A
C1258      H1267   1.081       .  S
C1259      C1260   1.417       .  A
C1259      S1263   1.803       .  S
C1260      C1261   1.406       .  A
C1261      C1262   1.397       .  A
C1261      H1268   1.084       .  S
C1262      S1264   1.806       .  S
S1263      H1266   1.407       .  S
S1264      H1265   1.401       .  S
C1269      C1270   1.400       .  A
C1269      C1274   1.412       .  A
C1270      C1271   1.391       .  A
C1270      H1279   1.084       .  S
C1271      C1272   1.416       .  A
C1271      S1275   1.813       .  S
C1272      C1273   1.405       .  A
C1273      C1274   1.406       .  A
C1273      H1280   1.084       .  S
C1274      S1276   1.800       .  S
S1275      H1278   1.407       .  S
S1276      H1277   1.405       .  S
C1281      C1282   1.407       .  A
C1281      C1286   1.423       .  A
C1282      C1283   1.391       .  A
C1282      H1291   1.082       .  S
C1283      C1284   1.421       .  A
C1283      S1287   1.811       .  S
C1284      C1285   1.413       .  A
C1285      C1286   1.411       .  A
C1285      H1292   1.078       .  S
C1286      S1288   1.800       .  S
S1287      H1290   1.407       .  S
S1288      H1289   1.407       .  S
C1293      C1294   1.398       .  A
C1293      C1298   1.410       .  A
C1294      C1295   1.400       .  A
C1294      H1303   1.078       .  S
C1295      C1296   1.414       .  A
C1295      S1299   1.805       .  S
C1296      C1297   1.405       .  A
C1297      C1298   1.404       .  A
C1297      H1304   1.084       .  S
C1298      S1300   1.801       .  S
S1299      H1302   1.407       .  S
S1300      H1301   1.406       .  S
C1305      C1306   1.410       .  A
C1305      C1310   1.426       .  A
C1306      C1307   1.395       .  A
C1306      H1315   1.082       .  S
C1307      C1308   1.420       .  A
C1307      S1311   1.816       .  S
C1308      C1309   1.410       .  A
C1309      C1310   1.414       .  A
C1309      H1316   1.075       .  S
C1310      S1312   1.806       .  S
S1311      H1314   1.407       .  S
S1312      H1313   1.406       .  S
C1317      C1318   1.403       .  A
C1317      C1322   1.412       .  A
C1318      C1319   1.406       .  A
C1318      H1327   1.080       .  S
C1319      C1320   1.416       .  A
C1319      S1323   1.796       .  S
C1320      C1321   1.406       .  A
C1321      C1322   1.399       .  A
C1321      H1328   1.083       .  S
C1322      S1324   1.808       .  S
S1323      H1326   1.404       .  S
S1324      H1325   1.407       .  S
C1329      C1330   1.400       .  A
C1329      C1334   1.410       .  A
C1330      C1331   1.407       .  A
C1330      H1339   1.080       .  S
C1331      C1332   1.418       .  A
C1331      S1335   1.802       .  S
C1332      C1333   1.406       .  A
C1333      C1334   1.396       .  A
C1333      H1340   1.084       .  S
C1334      S1336   1.804       .  S
S1335      H1338   1.406       .  S
S1336      H1337   1.406       .  S
C1341      C1342   1.529       .  S
C1341      C1347   1.533       .  S
C1341      C1345   1.551       .  S
C1341      C1576   1.542       .  S
C1342      H1349   1.087       .  S
C1342      C1343   1.362       .  D
C1343      C1344   1.541       .  S
C1343      C1597   1.480       .  S
C1344      C1348   1.542       .  S
C1344      C1346   1.539       .  S
C1344      H1350   1.111       .  S
C1345      H1351   1.083       .  S
C1345      C1346   1.371       .  D
C1346      C1463   1.466       .  S
C1347      H1352   1.087       .  S
C1347      C1348   1.365       .  D
C1348      C1585   1.493       .  S
C1353      C1354   1.536       .  S
C1353      C1359   1.535       .  S
C1353      C1357   1.541       .  S
C1353      C1549   1.547       .  S
C1354      H1361   1.087       .  S
C1354      C1355   1.372       .  D
C1355      C1356   1.545       .  S
C1355      C1588   1.508       .  S
C1356      C1360   1.546       .  S
C1356      C1358   1.548       .  S
C1356      H1362   1.104       .  S
C1357      H1363   1.080       .  S
C1357      C1358   1.370       .  D
C1358      C1447   1.472       .  S
C1359      H1364   1.088       .  S
C1359      C1360   1.355       .  D
C1360      C1564   1.481       .  S
C1365      C1366   1.532       .  S
C1365      C1371   1.546       .  S
C1365      C1369   1.525       .  S
C1365      C1525   1.536       .  S
C1366      H1373   1.087       .  S
C1366      C1367   1.362       .  D
C1367      C1368   1.541       .  S
C1367      C1537   1.482       .  S
C1368      C1372   1.543       .  S
C1368      C1370   1.543       .  S
C1368      H1374   1.110       .  S
C1369      H1375   1.086       .  S
C1369      C1370   1.363       .  D
C1370      C1450   1.461       .  S
C1371      H1376   1.084       .  S
C1371      C1372   1.373       .  D
C1372      C1600   1.495       .  S
C1377      C1378   1.549       .  S
C1377      C1383   1.536       .  S
C1377      C1381   1.525       .  S
C1377      C1513   1.537       .  S
C1378      H1385   1.082       .  S
C1378      C1379   1.369       .  D
C1379      C1380   1.534       .  S
C1379      C1561   1.482       .  S
C1380      C1384   1.541       .  S
C1380      C1382   1.546       .  S
C1380      H1386   1.111       .  S
C1381      H1923   1.087       .  S
C1381      C1382   1.365       .  D
C1382      C1462   1.463       .  S
C1383      H1388   1.087       .  S
C1383      C1384   1.361       .  D
C1384      C1540   1.485       .  S
H1387      C1917   1.087       .  S
C1389      C1390   1.532       .  S
C1389      C1395   1.544       .  S
C1389      C1393   1.541       .  S
C1389      C1573   1.551       .  S
C1390      H1397   1.088       .  S
C1390      C1391   1.362       .  D
C1391      C1392   1.540       .  S
C1391      C1492   1.478       .  S
C1392      C1396   1.537       .  S
C1392      C1394   1.541       .  S
C1392      H1398   1.108       .  S
C1393      H1399   1.077       .  S
C1393      C1394   1.367       .  D
C1394      C1461   1.463       .  S
C1395      H1400   1.087       .  S
C1395      C1396   1.369       .  D
C1396      C1501   1.491       .  S
C1401      C1402   1.538       .  S
C1401      C1407   1.534       .  S
C1401      C1405   1.548       .  S
C1401      C1552   1.542       .  S
C1402      H1409   1.086       .  S
C1402      C1403   1.368       .  D
C1403      C1404   1.531       .  S
C1403      C1477   1.480       .  S
C1404      C1408   1.535       .  S
C1404      C1406   1.535       .  S
C1404      H1410   1.111       .  S
C1405      H1411   1.083       .  S
C1405      C1406   1.372       .  D
C1406      C1449   1.462       .  S
C1407      H1412   1.087       .  S
C1407      C1408   1.359       .  D
C1408      C1489   1.478       .  S
C1413      C1414   1.540       .  S
C1413      C1419   1.542       .  S
C1413      C1417   1.524       .  S
C1413      C1528   1.534       .  S
C1414      H1421   1.082       .  S
C1414      C1415   1.369       .  D
C1415      C1416   1.538       .  S
C1415      C1504   1.483       .  S
C1416      C1420   1.541       .  S
C1416      C1418   1.542       .  S
C1416      H1422   1.111       .  S
C1417      H1423   1.087       .  S
C1417      C1418   1.360       .  D
C1418      C1448   1.459       .  S
C1419      H1424   1.087       .  S
C1419      C1420   1.367       .  D
C1420      C1465   1.489       .  S
C1425      C1426   1.533       .  S
C1425      C1431   1.542       .  S
C1425      C1429   1.527       .  S
C1425      C1516   1.536       .  S
C1426      H1433   1.087       .  S
C1426      C1427   1.363       .  D
C1427      C1428   1.549       .  S
C1427      C1468   1.489       .  S
C1428      C1432   1.541       .  S
C1428      C1430   1.545       .  S
C1428      H1434   1.109       .  S
C1429      H1971   1.087       .  S
C1429      C1430   1.362       .  D
C1430      C1464   1.465       .  S
C1431      H1436   1.083       .  S
C1431      C1432   1.372       .  D
C1432      C1480   1.492       .  S
H1435      C1965   1.086   1_545  S
O1437      C1447   1.280       .  A
O1438      C1448   1.278       .  A
O1439      C1449   1.281       .  A
O1440      C1450   1.280       .  A
O1440     Ni1445   1.917   1_655  S
O1441      C1450   1.279       .  A
O1441     Ni1446   1.912   1_655  S
O1442      C1449   1.277       .  A
O1443      C1448   1.280       .  A
O1444      C1447   1.282       .  A
Ni1445    Ni1446   2.395       .  S
O1451      C1461   1.281       .  A
O1452      C1998   1.278       .  A
O1452     Ni1459   1.911   1_565  S
O1453      C1463   1.282       .  A
O1453     Ni1459   1.923       .  S
O1454      C2000   1.280       .  A
O1455      C2000   1.279   1_545  A
O1456      C1463   1.279       .  A
O1456     Ni1460   1.914       .  S
O1457      C1998   1.279   1_545  A
O1457     Ni1460   1.910       .  S
O1458      C1461   1.279       .  A
Ni1459    Ni1460   2.395       .  S
C1462      O1988   1.280       .  A
C1462      O1993   1.279       .  A
C1464      O1990   1.279       .  A
C1464      O1991   1.281       .  A
C1465      C1466   1.405       .  A
C1465      C1470   1.412       .  A
C1466      C1467   1.409       .  A
C1466      H1475   1.084       .  S
C1467      C1468   1.414       .  A
C1468      C1469   1.404       .  A
C1469      C1470   1.400       .  A
C1469      H1476   1.083       .  S
C1470      S1472   1.809       .  S
S1471      H1474   1.403       .  S
S1472      H1473   1.407       .  S
C1477      C1478   1.401       .  A
C1477      C1482   1.407       .  A
C1478      C1479   1.405       .  A
C1478      H1487   1.082       .  S
C1479      C1480   1.418       .  A
C1479      S1483   1.804       .  S
C1480      C1481   1.407       .  A
C1481      C1482   1.394       .  A
C1481      H1488   1.084       .  S
S1483      H1486   1.407       .  S
S1484      H1485   1.407       .  S
C1489      C1490   1.405       .  A
C1489      C1494   1.408       .  A
C1490      C1491   1.407       .  A
C1490      H1499   1.084       .  S
C1491      C1492   1.410       .  A
C1492      C1493   1.399       .  A
C1493      C1494   1.392       .  A
C1493      H1500   1.084       .  S
C1494      S1496   1.801       .  S
S1495      H1498   1.406       .  S
S1496      H1497   1.406       .  S
C1501      C1502   1.404       .  A
C1501      C1506   1.415       .  A
C1502      C1503   1.400       .  A
C1502      H1511   1.083       .  S
C1503      C1504   1.410       .  A
C1503      S1507   1.807       .  S
C1504      C1505   1.401       .  A
C1505      C1506   1.401       .  A
C1505      H1512   1.084       .  S
S1507      H1510   1.407       .  S
S1508      H1509   1.403   1_554  S
C1513      C1514   1.408       .  A
C1513      C1518   1.414       .  A
C1514      C1515   1.402       .  A
C1514      H2059   1.083       .  S
C1515      C1516   1.418       .  A
C1515      S2055   1.810       .  S
C1516      C1517   1.411       .  A
C1517      C1518   1.405       .  A
C1517      H1524   1.078       .  S
C1518      S1520   1.808       .  S
S1519      C2051   1.809       .  S
S1519      H1522   1.407       .  S
S1520      H1521   1.407       .  S
H1523      C2050   1.082       .  S
C1525      C1526   1.408       .  A
C1525      C1530   1.421       .  A
C1526      C1527   1.401       .  A
C1526      H1535   1.081       .  S
C1527      C1528   1.419       .  A
C1527      S1531   1.803       .  S
C1528      C1529   1.405       .  A
C1529      C1530   1.397       .  A
C1529      H1536   1.084       .  S
C1530      S1532   1.804       .  S
S1531      H1534   1.407       .  S
S1532      H1533   1.402       .  S
C1537      C1538   1.402       .  A
C1537      C1542   1.412       .  A
C1538      C1539   1.392       .  A
C1538      H1547   1.083       .  S
C1539      C1540   1.416       .  A
C1539      S1543   1.814       .  S
C1540      C1541   1.405       .  A
C1541      C1542   1.407       .  A
C1541      H1548   1.084       .  S
C1542      S1544   1.801       .  S
S1543      H1546   1.407       .  S
S1544      H1545   1.405       .  S
C1549      C1550   1.407       .  A
C1549      C1554   1.424       .  A
C1550      C1551   1.390       .  A
C1550      H1559   1.082       .  S
C1551      C1552   1.421       .  A
C1551      S1555   1.812       .  S
C1552      C1553   1.413       .  A
C1553      C1554   1.413       .  A
C1553      H1560   1.078       .  S
C1554      S1556   1.797       .  S
S1555      H1558   1.406       .  S
S1556      H1557   1.407       .  S
C1561      C1562   1.397       .  A
C1561      C1566   1.411       .  A
C1562      C1563   1.399       .  A
C1562      H1571   1.079       .  S
C1563      C1564   1.415       .  A
C1563      S1567   1.805       .  S
C1564      C1565   1.405       .  A
C1565      C1566   1.403       .  A
C1565      H1572   1.084       .  S
C1566      S1568   1.801       .  S
S1567      H1570   1.407       .  S
S1568      H1569   1.403       .  S
C1573      C1574   1.411       .  A
C1573      C1578   1.426       .  A
C1574      C1575   1.396       .  A
C1574      H1583   1.082       .  S
C1575      C1576   1.420       .  A
C1575      S1579   1.817       .  S
C1576      C1577   1.410       .  A
C1577      C1578   1.413       .  A
C1577      H1584   1.075       .  S
C1578      S1580   1.805       .  S
S1579      H1582   1.407       .  S
S1580      H1581   1.407       .  S
C1585      C1586   1.404       .  A
C1585      C1590   1.413       .  A
C1586      C1587   1.408       .  A
C1586      H1595   1.081       .  S
C1587      C1588   1.419       .  A
C1587      S1591   1.797       .  S
C1588      C1589   1.406       .  A
C1589      C1590   1.400       .  A
C1589      H1596   1.083       .  S
C1590      S1592   1.809       .  S
S1591      H1594   1.404       .  S
S1592      H1593   1.407       .  S
C1597      C1598   1.399       .  A
C1597      C1602   1.410       .  A
C1598      C1599   1.406       .  A
C1598      H1607   1.080       .  S
C1599      C1600   1.418       .  A
C1599      S1603   1.801       .  S
C1600      C1601   1.405       .  A
C1601      C1602   1.396       .  A
C1601      H1608   1.084       .  S
C1602      S1604   1.803       .  S
S1603      H1606   1.407       .  S
S1604      H1605   1.406       .  S
C1609      C1610   1.530       .  S
C1609      C1615   1.535       .  S
C1609      C1613   1.548       .  S
C1609      C1844   1.543       .  S
C1610      H1617   1.087       .  S
C1610      C1611   1.363       .  D
C1611      C1612   1.545       .  S
C1611      C1865   1.485       .  S
C1612      C1616   1.540       .  S
C1612      C1614   1.542       .  S
C1612      H1618   1.111       .  S
C1613      H1619   1.082       .  S
C1613      C1614   1.368       .  D
C1614      C1731   1.468       .  S
C1615      H1620   1.087       .  S
C1615      C1616   1.367       .  D
C1616      C1853   1.491       .  S
C1621      C1622   1.535       .  S
C1621      C1627   1.536       .  S
C1621      C1625   1.542       .  S
C1621      C1817   1.546       .  S
C1622      H1629   1.087       .  S
C1622      C1623   1.370       .  D
C1623      C1624   1.544       .  S
C1623      C1856   1.503       .  S
C1624      C1628   1.541       .  S
C1624      C1626   1.545       .  S
C1624      H1630   1.105       .  S
C1625      H1631   1.079       .  S
C1625      C1626   1.371       .  D
C1626      C1715   1.467       .  S
C1627      H1632   1.088       .  S
C1627      C1628   1.355       .  D
C1628      C1832   1.477       .  S
C1633      C1634   1.529       .  S
C1633      C1639   1.547       .  S
C1633      C1637   1.520       .  S
C1633      C1793   1.532       .  S
C1634      H1641   1.086       .  S
C1634      C1635   1.365       .  D
C1635      C1636   1.542       .  S
C1635      C1805   1.479       .  S
C1636      C1640   1.538       .  S
C1636      C1638   1.545       .  S
C1636      H1642   1.110       .  S
C1637      H1643   1.086       .  S
C1637      C1638   1.362       .  D
C1638      C1718   1.455       .  S
C1639      H1644   1.085       .  S
C1639      C1640   1.368       .  D
C1640      C1868   1.494       .  S
C1645      C1646   1.550       .  S
C1645      C1651   1.536       .  S
C1645      C1649   1.523       .  S
C1645      C1781   1.537       .  S
C1646      H1653   1.083       .  S
C1646      C1647   1.373       .  D
C1647      C1648   1.534       .  S
C1647      C1829   1.481       .  S
C1648      C1652   1.537       .  S
C1648      C1650   1.542       .  S
C1648      H1654   1.111       .  S
C1649      C1650   1.363       .  D
C1650      C1730   1.458       .  S
C1651      H1656   1.086       .  S
C1651      C1652   1.358       .  D
C1652      C1808   1.481       .  S
C1657      C1658   1.535       .  S
C1657      C1663   1.539       .  S
C1657      C1661   1.547       .  S
C1657      C1841   1.554       .  S
C1658      H1665   1.088       .  S
C1658      C1659   1.361       .  D
C1659      C1660   1.540       .  S
C1659      C1760   1.477       .  S
C1660      C1664   1.536       .  S
C1660      C1662   1.539       .  S
C1660      H1666   1.107       .  S
C1661      H1667   1.074       .  S
C1661      C1662   1.370       .  D
C1662      C1729   1.466       .  S
C1663      H1668   1.087       .  S
C1663      C1664   1.367       .  D
C1664      C1769   1.492       .  S
C1669      C1670   1.539       .  S
C1669      C1675   1.533       .  S
C1669      C1673   1.547       .  S
C1669      C1820   1.540       .  S
C1670      H1677   1.086       .  S
C1670      C1671   1.367       .  D
C1671      C1672   1.533       .  S
C1671      C1745   1.486       .  S
C1672      C1676   1.537       .  S
C1672      C1674   1.537       .  S
C1672      H1678   1.111       .  S
C1673      H1679   1.083       .  S
C1673      C1674   1.373       .  D
C1674      C1717   1.462       .  S
C1675      H1680   1.087       .  S
C1675      C1676   1.359       .  D
C1676      C1757   1.478       .  S
C1681      C1682   1.543       .  S
C1681      C1687   1.539       .  S
C1681      C1685   1.523       .  S
C1681      C1796   1.530       .  S
C1682      H1689   1.083       .  S
C1682      C1683   1.371       .  D
C1683      C1684   1.536       .  S
C1683      C1772   1.485       .  S
C1684      C1688   1.544       .  S
C1684      C1686   1.540       .  S
C1684      H1690   1.111       .  S
C1685      H1691   1.087       .  S
C1685      C1686   1.358       .  D
C1686      C1716   1.455       .  S
C1687      H1692   1.087       .  S
C1687      C1688   1.364       .  D
C1688      C1733   1.485       .  S
C1693      C1694   1.539       .  S
C1693      C1699   1.539       .  S
C1693      C1697   1.526       .  S
C1693      C1784   1.539       .  S
C1694      H1701   1.086       .  S
C1694      C1695   1.367       .  D
C1695      C1696   1.546       .  S
C1695      C1736   1.488       .  S
C1696      C1700   1.545       .  S
C1696      C1698   1.543       .  S
C1696      H1702   1.108       .  S
C1697      C1698   1.360       .  D
C1698      C1732   1.464       .  S
C1699      H1704   1.084       .  S
C1699      C1700   1.370       .  D
C1700      C1748   1.498       .  S
O1705      C1715   1.279       .  A
O1706      C1716   1.277       .  A
O1706     Ni1981   1.908   1_554  S
O1707      C1717   1.280       .  A
O1708      C1718   1.279       .  A
O1708     Ni1713   1.915       .  S
O1709      C1718   1.278       .  A
O1709     Ni1714   1.906       .  S
O1710      C1717   1.279       .  A
O1711      C1716   1.280       .  A
O1711     Ni1982   1.913   1_554  S
O1712      C1715   1.282       .  A
Ni1713     O1974   1.910       .  S
Ni1713    Ni1714   2.396       .  S
Ni1714     O1979   1.909       .  S
O1719      C1729   1.281       .  A
O1719     Ni1995   1.921   1_554  S
O1720     Ni1727   1.922       .  S
O1721      C1731   1.279       .  A
O1721     Ni1727   1.918       .  S
O1722     Ni1995   1.918   1_554  S
O1723     Ni1996   1.909   1_554  S
O1724      C1731   1.282       .  A
O1724     Ni1728   1.923       .  S
O1725     Ni1728   1.904       .  S
O1726      C1729   1.279       .  A
O1726     Ni1996   1.915   1_554  S
Ni1727     O1987   1.920       .  S
Ni1727     O1990   1.917       .  S
Ni1727    Ni1728   2.395       .  S
Ni1728     O1991   1.919       .  S
Ni1728     O1994   1.908       .  S
C1733      C1734   1.403       .  A
C1733      C1738   1.412       .  A
C1734      C1735   1.407       .  A
C1734      H1743   1.084       .  S
C1735      C1736   1.413       .  A
C1735      S2007   1.799       .  S
C1736      C1737   1.403       .  A
C1737      C1738   1.402       .  A
C1737      H1744   1.083       .  S
C1738      S1740   1.808       .  S
S1739      C2003   1.799       .  S
S1739      H1742   1.404       .  S
S1740      H1741   1.406       .  S
C1745      C1746   1.402       .  A
C1745      C1750   1.408       .  A
C1746      C1747   1.407       .  A
C1746      H1755   1.082       .  S
C1747      C1748   1.418       .  A
C1747      S1751   1.802       .  S
C1748      C1749   1.409       .  A
C1749      C1750   1.394       .  A
C1749      H1756   1.084       .  S
C1750      S2020   1.804       .  S
S1751      H1754   1.408   1_554  S
S1752      C2018   1.804       .  S
S1752      H1753   1.407       .  S
C1757      C1758   1.405       .  A
C1757      C1762   1.409       .  A
C1758      C1759   1.405       .  A
C1758      H1767   1.084       .  S
C1759      C1760   1.410       .  A
C1759      S2031   1.800       .  S
C1760      C1761   1.399       .  A
C1761      C1762   1.393       .  A
C1761      H1768   1.084       .  S
C1762      S1764   1.799       .  S
S1763      C2027   1.800       .  S
S1763      H1766   1.407       .  S
S1764      H1765   1.407       .  S
C1769      C1770   1.405       .  A
C1769      C1774   1.414       .  A
C1770      C1771   1.399       .  A
C1770      H1779   1.083       .  S
C1771      C1772   1.410       .  A
C1771      S1775   1.806       .  S
C1772      C1773   1.403       .  A
C1773      C1774   1.401       .  A
C1773      H1780   1.083       .  S
C1774      S2044   1.795       .  S
S1775      H1778   1.407       .  S
S1776      C2042   1.792       .  S
S1776      H1777   1.405       .  S
C1781      C1782   1.410       .  A
C1781      C1786   1.412       .  A
C1782      C1783   1.398       .  A
C1783      C1784   1.419       .  A
C1784      C1785   1.414       .  A
C1785      C1786   1.405       .  A
C1785      H1792   1.079       .  S
C1786      S1788   1.807       .  S
S1787      H1790   1.402       .  S
S1788      H1789   1.406       .  S
C1793      C1794   1.406       .  A
C1793      C1798   1.418       .  A
C1794      C1795   1.397       .  A
C1794      H1803   1.083       .  S
C1795      C1796   1.418       .  A
C1795      S1799   1.801       .  S
C1796      C1797   1.407       .  A
C1797      C1798   1.397       .  A
C1797      H1804   1.084       .  S
C1798      S1800   1.805       .  S
S1799      H1802   1.406       .  S
S1800      H1801   1.404       .  S
C1805      C1806   1.402       .  A
C1805      C1810   1.412       .  A
C1806      C1807   1.388       .  A
C1806      H1815   1.083       .  S
C1807      C1808   1.417       .  A
C1807      S1811   1.815       .  S
C1808      C1809   1.406       .  A
C1809      C1810   1.406       .  A
C1809      H1816   1.084       .  S
C1810      S1812   1.803       .  S
S1811      H1814   1.407       .  S
S1812      H1813   1.403       .  S
C1817      C1818   1.407       .  A
C1817      C1822   1.423       .  A
C1818      C1819   1.389       .  A
C1818      H1827   1.083       .  S
C1819      C1820   1.420       .  A
C1819      S1823   1.813       .  S
C1820      C1821   1.413       .  A
C1821      C1822   1.413       .  A
C1821      H1828   1.079       .  S
C1822      S1824   1.796       .  S
S1823      H1826   1.407       .  S
S1824      H1825   1.408       .  S
C1829      C1830   1.396       .  A
C1829      C1834   1.410       .  A
C1830      C1831   1.395       .  A
C1830      H1839   1.075       .  S
C1831      C1832   1.412       .  A
C1831      S1835   1.808       .  S
C1832      C1833   1.405       .  A
C1833      C1834   1.405       .  A
C1833      H1840   1.084       .  S
C1834      S1836   1.801       .  S
S1835      H1838   1.407       .  S
S1836      H1837   1.407       .  S
C1841      C1842   1.413       .  A
C1841      C1846   1.425       .  A
C1842      C1843   1.395       .  A
C1842      H1851   1.083       .  S
C1843      C1844   1.418       .  A
C1843      S1847   1.815       .  S
C1844      C1845   1.411       .  A
C1845      C1846   1.413       .  A
C1845      H1852   1.074       .  S
C1846      S1848   1.801       .  S
S1847      H1850   1.407       .  S
S1848      H1849   1.406       .  S
C1853      C1854   1.403       .  A
C1853      C1858   1.411       .  A
C1854      C1855   1.407       .  A
C1854      H1863   1.078       .  S
C1855      C1856   1.417       .  A
C1855      S1859   1.796       .  S
C1856      C1857   1.406       .  A
C1857      C1858   1.400       .  A
C1857      H1864   1.083       .  S
C1858      S1860   1.808       .  S
S1859      H1862   1.404       .  S
S1860      H1861   1.406       .  S
C1865      C1866   1.401       .  A
C1865      C1870   1.411       .  A
C1866      C1867   1.407       .  A
C1866      H1875   1.077       .  S
C1867      C1868   1.416       .  A
C1867      S1871   1.802       .  S
C1868      C1869   1.405       .  A
C1869      C1870   1.397       .  A
C1869      H1876   1.084       .  S
C1870      S1872   1.803       .  S
S1871      H1874   1.407       .  S
S1872      H1873   1.407       .  S
C1877      C1878   1.519       .  S
C1877      C1883   1.534       .  S
C1877      C1881   1.540       .  S
C1877      C2112   1.536       .  S
C1878      H1885   1.088       .  S
C1878      C1879   1.362       .  D
C1879      C1880   1.541       .  S
C1879      C2133   1.487       .  S
C1880      C1884   1.540       .  S
C1880      C1882   1.548       .  S
C1880      H1886   1.111       .  S
C1881      H1887   1.084       .  S
C1881      C1882   1.374       .  D
C1882      C1999   1.462       .  S
C1883      H1888   1.086       .  S
C1883      C1884   1.365       .  D
C1884      C2121   1.490       .  S
C1889      C1890   1.535       .  S
C1889      C1895   1.538       .  S
C1889      C1893   1.544       .  S
C1889      C2085   1.550       .  S
C1890      H1897   1.087       .  S
C1890      C1891   1.372       .  D
C1891      C1892   1.545       .  S
C1891      C2124   1.504       .  S
C1892      C1896   1.543       .  S
C1892      C1894   1.548       .  S
C1892      H1898   1.105       .  S
C1893      H1899   1.080       .  S
C1893      C1894   1.372       .  D
C1894      C1983   1.474       .  S
C1895      H1900   1.087       .  S
C1895      C1896   1.356       .  D
C1896      C2100   1.480       .  S
C1901      C1902   1.549       .  S
C1901      C1907   1.539       .  S
C1901      C1905   1.517       .  S
C1901      C2061   1.530       .  S
C1902      H1909   1.083       .  S
C1902      C1903   1.369       .  D
C1903      C1904   1.529       .  S
C1903      C2073   1.478       .  S
C1904      C1908   1.542       .  S
C1904      C1906   1.546       .  S
C1904      H1910   1.111       .  S
C1905      H1911   1.087       .  S
C1905      C1906   1.362       .  D
C1906      C1986   1.452       .  S
C1907      H1912   1.086       .  S
C1907      C1908   1.357       .  D
C1908      C2136   1.485       .  S
C1913      C1914   1.550       .  S
C1913      C1919   1.539       .  S
C1913      C1917   1.524       .  S
C1913      C2049   1.535       .  S
C1914      H1921   1.084       .  S
C1914      C1915   1.371       .  D
C1915      C1916   1.534       .  S
C1915      C2097   1.486       .  S
C1916      C1920   1.537       .  S
C1916      C1918   1.540       .  S
C1916      H1922   1.111       .  S
C1917      C1918   1.362       .  D
C1918      C1998   1.455       .  S
C1919      H1924   1.087       .  S
C1919      C1920   1.360       .  D
C1920      C2076   1.475       .  S
C1925      C1926   1.540       .  S
C1925      C1931   1.535       .  S
C1925      C1929   1.536       .  S
C1925      C2109   1.542       .  S
C1926      H1933   1.087       .  S
C1926      C1927   1.360       .  D
C1927      C1928   1.543       .  S
C1927      C2028   1.480       .  S
C1928      C1932   1.538       .  S
C1928      C1930   1.543       .  S
C1928      H1934   1.106       .  S
C1929      H1935   1.082       .  S
C1929      C1930   1.367       .  D
C1930      C1997   1.460       .  S
C1931      H1936   1.087       .  S
C1931      C1932   1.367       .  D
C1932      C2037   1.495       .  S
C1937      C1938   1.541       .  S
C1937      C1943   1.534       .  S
C1937      C1941   1.549       .  S
C1937      C2088   1.545       .  S
C1938      H1945   1.086       .  S
C1938      C1939   1.368       .  D
C1939      C1940   1.532       .  S
C1939      C2013   1.485       .  S
C1940      C1944   1.538       .  S
C1940      C1942   1.538       .  S
C1940      H1946   1.111       .  S
C1941      H1947   1.083       .  S
C1941      C1942   1.373       .  D
C1942      C1985   1.466       .  S
C1943      H1948   1.087       .  S
C1943      C1944   1.360       .  D
C1944      C2025   1.481       .  S
C1949      C1950   1.544       .  S
C1949      C1955   1.539       .  S
C1949      C1953   1.522       .  S
C1949      C2064   1.529       .  S
C1950      H1957   1.084       .  S
C1950      C1951   1.373       .  D
C1951      C1952   1.539       .  S
C1951      C2040   1.491       .  S
C1952      C1956   1.540       .  S
C1952      C1954   1.538       .  S
C1952      H1958   1.111       .  S
C1953      H1959   1.087       .  S
C1953      C1954   1.357       .  D
C1954      C1984   1.454       .  S
C1955      H1960   1.086       .  S
C1955      C1956   1.363       .  D
C1956      C2001   1.479       .  S
C1961      C1962   1.536       .  S
C1961      C1967   1.539       .  S
C1961      C1965   1.529       .  S
C1961      C2052   1.537       .  S
C1962      H1969   1.087       .  S
C1962      C1963   1.365       .  D
C1963      C1964   1.543       .  S
C1963      C2004   1.482       .  S
C1964      C1968   1.543       .  S
C1964      C1966   1.541       .  S
C1964      H1970   1.108       .  S
C1965      C1966   1.363       .  D
C1966      C2000   1.463       .  S
C1967      H1972   1.083       .  S
C1967      C1968   1.370       .  D
C1968      C2016   1.498       .  S
O1973      C1983   1.280       .  A
O1974      C1984   1.278       .  A
O1975      C1985   1.281       .  A
O1976      C1986   1.280       .  A
O1976     Ni1981   1.911       .  S
O1977      C1986   1.276       .  A
O1977     Ni1982   1.905       .  S
O1978      C1985   1.279       .  A
O1979      C1984   1.279       .  A
O1980      C1983   1.282       .  A
Ni1981    Ni1982   2.397       .  S
O1987      C1997   1.281       .  A
O1988     Ni1995   1.922       .  S
O1989      C1999   1.280       .  A
O1989     Ni1995   1.920       .  S
O1992      C1999   1.279       .  A
O1992     Ni1996   1.910       .  S
O1993     Ni1996   1.909       .  S
O1994      C1997   1.277       .  A
Ni1995    Ni1996   2.395       .  S
C2001      C2002   1.402       .  A
C2001      C2006   1.411       .  A
C2002      C2003   1.404       .  A
C2002      H2011   1.084       .  S
C2003      C2004   1.411       .  A
C2004      C2005   1.403       .  A
C2005      C2006   1.400       .  A
C2005      H2012   1.083       .  S
C2006      S2008   1.807       .  S
S2007      H2010   1.403       .  S
S2008      H2009   1.406       .  S
C2013      C2014   1.401       .  A
C2013      C2018   1.408       .  A
C2014      C2015   1.407       .  A
C2014      H2023   1.081       .  S
C2015      C2016   1.419       .  A
C2015      S2019   1.804       .  S
C2016      C2017   1.408       .  A
C2017      C2018   1.394       .  A
C2017      H2024   1.084       .  S
S2019      H2022   1.406       .  S
S2020      H2021   1.407       .  S
C2025      C2026   1.404       .  A
C2025      C2030   1.410       .  A
C2026      C2027   1.406       .  A
C2026      H2035   1.083       .  S
C2027      C2028   1.411       .  A
C2028      C2029   1.400       .  A
C2029      C2030   1.395       .  A
C2029      H2036   1.084       .  S
C2030      S2032   1.799       .  S
S2031      H2034   1.406       .  S
S2032      H2033   1.407       .  S
C2037      C2038   1.406       .  A
C2037      C2042   1.414       .  A
C2038      C2039   1.401       .  A
C2038      H2047   1.083       .  S
C2039      C2040   1.411       .  A
C2039      S2043   1.805       .  S
C2040      C2041   1.405       .  A
C2041      C2042   1.401       .  A
C2041      H2048   1.083       .  S
S2043      H2046   1.407       .  S
S2044      H2045   1.404   1_554  S
C2049      C2050   1.411       .  A
C2049      C2054   1.413       .  A
C2050      C2051   1.403       .  A
C2051      C2052   1.415       .  A
C2052      C2053   1.411       .  A
C2053      C2054   1.403       .  A
C2053      H2060   1.079       .  S
C2054      S2056   1.809       .  S
S2055      H2058   1.407       .  S
S2056      H2057   1.406       .  S
C2061      C2062   1.406       .  A
C2061      C2066   1.413       .  A
C2062      C2063   1.397       .  A
C2062      H2071   1.084       .  S
C2063      C2064   1.420       .  A
C2063      S2067   1.803       .  S
C2064      C2065   1.410       .  A
C2065      C2066   1.397       .  A
C2065      H2072   1.083       .  S
C2066      S2068   1.803       .  S
S2067      H2070   1.403       .  S
S2068      H2069   1.407       .  S
C2073      C2074   1.392       .  A
C2073      C2078   1.409       .  A
C2074      C2075   1.388       .  A
C2074      H2083   1.073       .  S
C2075      C2076   1.412       .  A
C2075      S2079   1.812       .  S
C2076      C2077   1.405       .  A
C2077      C2078   1.406       .  A
C2077      H2084   1.084       .  S
C2078      S2080   1.800       .  S
S2079      H2082   1.405       .  S
S2080      H2081   1.406       .  S
C2085      C2086   1.407       .  A
C2085      C2090   1.423       .  A
C2086      C2087   1.393       .  A
C2086      H2095   1.082       .  S
C2087      C2088   1.422       .  A
C2087      S2091   1.812       .  S
C2088      C2089   1.414       .  A
C2089      C2090   1.414       .  A
C2089      H2096   1.078       .  S
C2090      S2092   1.797       .  S
S2091      H2094   1.407       .  S
S2092      H2093   1.408       .  S
C2097      C2098   1.396       .  A
C2097      C2102   1.409       .  A
C2098      C2099   1.396       .  A
C2098      H2107   1.076       .  S
C2099      C2100   1.416       .  A
C2099      S2103   1.806       .  S
C2100      C2101   1.406       .  A
C2101      C2102   1.405       .  A
C2101      H2108   1.084       .  S
C2102      S2104   1.800       .  S
S2103      H2106   1.400       .  S
S2104      H2105   1.407       .  S
C2109      C2110   1.406       .  A
C2109      C2114   1.425       .  A
C2110      C2111   1.389       .  A
C2110      H2119   1.082       .  S
C2111      C2112   1.423       .  A
C2111      S2115   1.817       .  S
C2112      C2113   1.409       .  A
C2113      C2114   1.415       .  A
C2113      H2120   1.078       .  S
C2114      S2116   1.806       .  S
S2115      H2118   1.408       .  S
S2116      H2117   1.406       .  S
C2121      C2122   1.405       .  A
C2121      C2126   1.412       .  A
C2122      C2123   1.407       .  A
C2122      H2131   1.083       .  S
C2123      C2124   1.416       .  A
C2123      S2127   1.797       .  S
C2124      C2125   1.406       .  A
C2125      C2126   1.400       .  A
C2125      H2132   1.083       .  S
C2126      S2128   1.808       .  S
S2127      H2130   1.404       .  S
S2128      H2129   1.407       .  S
C2133      C2134   1.399       .  A
C2133      C2138   1.413       .  A
C2134      C2135   1.385       .  A
C2134      H2143   1.084       .  S
C2135      C2136   1.424       .  A
C2135      S2139   1.820       .  S
C2136      C2137   1.410       .  A
C2137      C2138   1.410       .  A
C2137      H2144   1.084       .  S
C2138      S2140   1.801       .  S
S2139      H2142   1.395       .  S
S2140      H2141   1.404       .  S
