geometry optimzed in LAMMPS
_audit_creation_date              2020-11-30 
_audit_creation_method            'lammps2cif' 
_symmetry_space_group_name_H-M    'P1' 
_symmetry_Int_Tables_number       1 
_symmetry_cell_setting            triclinic 
loop_ 
_symmetry_equiv_pos_as_xyz 
  x,y,z 
_cell_length_a                    61.17954548 
_cell_length_b                    61.1731544671247 
_cell_length_c                    29.76464745367204 
_cell_angle_alpha                 89.99093563408462 
_cell_angle_beta                  90.4518898097008 
_cell_angle_gamma                 90.05909446393454 
loop_ 
_atom_site_label 
_atom_site_type_symbol 
_atom_site_fract_x 
_atom_site_fract_y 
_atom_site_fract_z 
_atom_site_charge 
O1          O  0.75349303  0.13093282  0.48473009    -0.56400
C2          C  0.71690297  0.07326400  0.48267991     0.76200
O3          O  0.68493528  0.12872063  0.53854172    -0.57500
C4          C  0.74967435  0.15128336  0.48675376     0.76200
C5          C  0.69809624  0.12617914  0.39383604     0.78600
Cd6        Cd  0.71463891  0.11991431  0.48362909     1.37500
O7          O  0.73403309  0.08474918  0.48761178    -0.56400
O8          O  0.71634065  0.11738876  0.40260229    -0.55200
C9          C  0.69694401  0.12457684  0.57254126     0.78600
O10         O  0.68716917  0.13284346  0.42731097    -0.57600
O11         O  0.69909256  0.08354031  0.47798284    -0.56000
O12         O  0.72975230  0.15690288  0.48634899    -0.56000
O13         O  0.71631023  0.11876795  0.56442140    -0.55200
O14         O  0.73285497  0.89785240  0.50647994    -0.56400
C15         C  0.74970478  0.83256589  0.51316815     0.76200
O16         O  0.68791855  0.84979264  0.57604619    -0.57500
C17         C  0.71577469  0.90929025  0.51124372     0.76200
C18         C  0.69683964  0.85225979  0.43120824     0.78600
Cd19       Cd  0.71436478  0.86262909  0.51804996     1.37500
O20         O  0.75318812  0.85245474  0.52311747    -0.56400
O21         O  0.71612458  0.85895534  0.43800446    -0.55200
C22         C  0.70105502  0.85291088  0.60872125     0.78600
O23         O  0.68452471  0.85089815  0.46532417    -0.57600
O24         O  0.73004474  0.82705800  0.50587993    -0.56000
O25         O  0.69838441  0.89909327  0.52051668    -0.56000
O26         O  0.71971486  0.86028681  0.59878923    -0.55200
O27         O  0.38539485  0.22335852  0.01424136    -0.56400
C28         C  0.43987659  0.18324224  0.01138148     0.76200
O29         O  0.38168296  0.15483221  0.07272027    -0.57500
C30         C  0.36513233  0.22150048  0.02186678     0.76200
C31         C  0.38203179  0.16753207  0.92893082     0.78600
Cd32       Cd  0.39305855  0.18370585  0.01792095     1.37500
O33         O  0.42962589  0.20063739  0.02074674    -0.56400
O34         O  0.39258630  0.18499721  0.93595534    -0.55200
C35         C  0.38767550  0.16551184  0.10729596     0.78600
O36         O  0.37590510  0.15722098  0.96370506    -0.57600
O37         O  0.42845973  0.16616975  0.00594270    -0.56000
O38         O  0.35795989  0.20228039  0.02740926    -0.56000
O39         O  0.39621289  0.18399617  0.09998922    -0.55200
O40         O  0.61592215  0.19385174  0.97941016    -0.56400
C41         C  0.67996412  0.20847051  0.97737232     0.76200
O42         O  0.65976712  0.14375614  0.03826314    -0.57500
C43         C  0.60374177  0.17744133  0.98610843     0.76200
C44         C  0.65562720  0.15489920  0.89310106     0.78600
Cd45       Cd  0.65005374  0.17276058  0.98174503     1.37500
O46         O  0.66016783  0.21130058  0.98801184    -0.56400
O47         O  0.64510182  0.17219665  0.90121820    -0.55200
C48         C  0.65997857  0.15718046  0.07084459     0.78600
O49         O  0.66330344  0.14478357  0.92702975    -0.57600
O50         O  0.68581300  0.18911943  0.96838491    -0.56000
O51         O  0.61317575  0.15913286  0.99034021    -0.56000
O52         O  0.65587025  0.17684058  0.06120142    -0.55200
O53         O  0.30613986  0.08975690  0.50494039    -0.56400
C54         C  0.29694763  0.15579452  0.51096526     0.76200
O55         O  0.35792185  0.12975508  0.57457446    -0.57500
C56         C  0.32144785  0.07643312  0.51352145     0.76200
C57         C  0.34840855  0.12852682  0.42725136     0.78600
Cd58       Cd  0.32935669  0.12263640  0.51526081     1.37500
O59         O  0.29191071  0.13592762  0.51733450    -0.56400
O60         O  0.32912785  0.12194130  0.43388735    -0.55200
C61         C  0.34434172  0.13012128  0.60669212     0.78600
O62         O  0.35980862  0.13242895  0.46225872    -0.57600
O63         O  0.31705781  0.16009606  0.50638131    -0.56000
O64         O  0.33973240  0.08471261  0.52411253    -0.56000
O65         O  0.32451362  0.12737681  0.59586571    -0.55200
O66         O  0.28984229  0.85690229  0.45721576    -0.56400
C67         C  0.32057612  0.91449851  0.46515835     0.76200
O68         O  0.35948338  0.85821836  0.51048385    -0.57500
C69         C  0.29385917  0.83672763  0.46183464     0.76200
C70         C  0.34516898  0.86291735  0.36630711     0.78600
Cd71       Cd  0.32837218  0.86841298  0.45781778     1.37500
O72         O  0.30508924  0.90089757  0.46859794    -0.56400
O73         O  0.32616209  0.86992234  0.37452049    -0.55200
C74         C  0.34861621  0.86196191  0.54586705     0.78600
O75         O  0.35678715  0.85831366  0.40055531    -0.57600
O76         O  0.33934853  0.90673337  0.45735534    -0.56000
O77         O  0.31381998  0.83130909  0.46320663    -0.56000
O78         O  0.32916828  0.86818473  0.53969190    -0.55200
O79         O  0.62018608  0.77898319  0.00896527    -0.56400
C80         C  0.68457114  0.76074684  0.02609089     0.76200
O81         O  0.66787946  0.82601037  0.96424292    -0.57500
C82         C  0.60900218  0.79611930  0.01541001     0.76200
C83         C  0.66322844  0.81435991  0.10879598     0.78600
Cd84       Cd  0.65589893  0.79735932  0.01949333     1.37500
O85         O  0.66402083  0.75803122  0.02619189    -0.56400
O86         O  0.65144374  0.79786358  0.10031967    -0.55200
C87         C  0.66679407  0.81324521  0.93061774     0.78600
O88         O  0.67184942  0.82374466  0.07519894    -0.57600
O89         O  0.69135099  0.78024885  0.02391551    -0.56000
O90         O  0.61959516  0.81355099  0.02287383    -0.56000
O91         O  0.66066080  0.79393588  0.93875977    -0.55200
O92         O  0.39088472  0.77261927  0.95917269    -0.56400
C93         C  0.44680927  0.80855903  0.96540815     0.76200
O94         O  0.39038378  0.84058806  0.89861509    -0.57500
C95         C  0.37056283  0.77562395  0.95341416     0.76200
C96         C  0.38856439  0.82776200  0.04561692     0.78600
Cd97       Cd  0.40020587  0.81201049  0.95640908     1.37500
O98         O  0.43443447  0.79199647  0.96287785    -0.56400
O99         O  0.39810817  0.80984351  0.03829062    -0.55200
C100        C  0.39458626  0.82844410  0.86510774     0.78600
O101        O  0.38436484  0.83929569  0.01106776    -0.57600
O102        O  0.43767047  0.82707137  0.96192874    -0.56000
O103        O  0.36436758  0.79519869  0.94820124    -0.56000
O104        O  0.40170111  0.80955703  0.87435763    -0.55200
O105        O  0.81680002  0.58049083  0.02717594    -0.56400
C106        C  0.79803392  0.64313353  0.03993804     0.76200
O107        O  0.86281735  0.62959457  0.09597338    -0.57500
C108        C  0.83373540  0.56883237  0.03211128     0.76200
C109        C  0.85177072  0.62540110  0.95184488     0.78600
Cd110      Cd  0.83540648  0.61539387  0.04026899     1.37500
O111        O  0.79623040  0.62320402  0.05087278    -0.56400
O112        O  0.83252805  0.61903163  0.95966442    -0.55200
C113        C  0.85191307  0.62354946  0.12994858     0.78600
O114        O  0.86435929  0.62738028  0.98580946    -0.57600
O115        O  0.81702125  0.65008694  0.03118793    -0.56000
O116        O  0.85132290  0.57881823  0.04138108    -0.56000
O117        O  0.83401761  0.61396380  0.12178971    -0.55200
O118        O  0.81061102  0.39353357  0.01826505    -0.56400
C119        C  0.79310530  0.32751229  0.99504760     0.76200
O120        O  0.85741195  0.34418942  0.95372941    -0.57500
C121        C  0.82741520  0.40471377  0.00868828     0.76200
C122        C  0.84571246  0.34874412  0.09643028     0.78600
Cd123      Cd  0.82876470  0.35774504  0.00695338     1.37500
O124        O  0.78955082  0.34793697  0.99612833    -0.56400
O125        O  0.82596428  0.35362817  0.08860816    -0.55200
C126        C  0.84702335  0.35085867  0.91917626     0.78600
O127        O  0.85801317  0.34760669  0.06235956    -0.57600
O128        O  0.81276412  0.32157273  0.00044110    -0.56000
O129        O  0.84434148  0.39406521  0.99830961    -0.56000
O130        O  0.82908925  0.36042246  0.92635566    -0.55200
O131        O  0.11362754  0.70420840  0.47759182    -0.56400
C132        C  0.17806184  0.72015143  0.46743762     0.76200
O133        O  0.15650937  0.65487798  0.52889536    -0.57500
C134        C  0.10172817  0.68724147  0.47748716     0.76200
C135        C  0.15665127  0.66829556  0.38093041     0.78600
Cd136      Cd  0.14837888  0.68417559  0.47103342     1.37500
O137        O  0.15787674  0.72322837  0.47452683    -0.56400
O138        O  0.14536966  0.68515979  0.38897980    -0.55200
C139        C  0.15876468  0.66860247  0.56067293     0.78600
O140        O  0.16346882  0.65775816  0.41508746    -0.57600
O141        O  0.18413663  0.70059661  0.46138382    -0.56000
O142        O  0.11149626  0.66914091  0.47315276    -0.56000
O143        O  0.15676287  0.68845737  0.54996935    -0.55200
O144        O  0.92725605  0.70151191  0.53656791    -0.56400
C145        C  0.86191403  0.71361949  0.53383088     0.76200
O146        O  0.89483680  0.68060409  0.45836057    -0.57500
C147        C  0.93997277  0.68518611  0.53523264     0.76200
C148        C  0.88698126  0.66179186  0.62909253     0.78600
Cd149      Cd  0.89363662  0.67934164  0.53951434     1.37500
O150        O  0.88222276  0.71759532  0.53510461    -0.56400
O151        O  0.89672483  0.67965471  0.62148730    -0.55200
C152        C  0.88839908  0.66135537  0.45060690     0.78600
O153        O  0.88030784  0.65136984  0.59471978    -0.57600
O154        O  0.85627510  0.69376650  0.53678112    -0.56000
O155        O  0.93123374  0.66645782  0.53794957    -0.56000
O156        O  0.88408097  0.64973534  0.48480434    -0.55200
O157        O  0.12153586  0.29042294  0.51289155    -0.56400
C158        C  0.18404251  0.27448751  0.51191934     0.76200
O159        O  0.17492777  0.33606008  0.45358178    -0.57500
C160        C  0.10933530  0.30680801  0.50541865     0.76200
C161        C  0.15947458  0.32970412  0.59698214     0.78600
Cd162      Cd  0.15548328  0.31128919  0.50816527     1.37500
O163        O  0.16482146  0.27259419  0.49644998    -0.56400
O164        O  0.14793441  0.31316141  0.58776066    -0.55200
C165        C  0.16431174  0.32893856  0.41979192     0.78600
O166        O  0.16863194  0.33905165  0.56394585    -0.57600
O167        O  0.18955756  0.29317440  0.52599437    -0.56000
O168        O  0.11867742  0.32512285  0.49986973    -0.56000
O169        O  0.14993033  0.31470189  0.42772099    -0.55200
O170        O  0.93391156  0.28269489  0.50520304    -0.56400
C171        C  0.86833044  0.26567737  0.50455243     0.76200
O172        O  0.88436379  0.32901114  0.56413924    -0.57500
C173        C  0.94509661  0.30002444  0.50997970     0.76200
C174        C  0.89163087  0.31858704  0.41861950     0.78600
Cd175      Cd  0.89843863  0.30149003  0.50863224     1.37500
O176        O  0.88851786  0.26215292  0.51121430    -0.56400
O177        O  0.90324075  0.30198634  0.42710148    -0.55200
C178        C  0.88900661  0.31737973  0.59828802     0.78600
O179        O  0.88378250  0.32841376  0.45247885    -0.57600
O180        O  0.86260154  0.28541487  0.50015067    -0.56000
O181        O  0.93452202  0.31764690  0.51506061    -0.56000
O182        O  0.89815896  0.29927771  0.59035726    -0.55200
O183        O  0.23849865  0.40508497  0.99720729    -0.56400
C184        C  0.25230882  0.34063249  0.01389291     0.76200
O185        O  0.19022991  0.35481809  0.06150871    -0.57500
C186        C  0.22257465  0.41770863  0.00504502     0.76200
C187        C  0.19995616  0.36372110  0.91866187     0.78600
Cd188      Cd  0.21724328  0.37122080  0.00822561     1.37500
O189        O  0.25587549  0.36091253  0.01876359    -0.56400
O190        O  0.21994109  0.36681282  0.92747892    -0.55200
C191        C  0.19926898  0.36296270  0.09623780     0.78600
O192        O  0.18714463  0.36397294  0.95204996    -0.57600
O193        O  0.23269906  0.33499799  0.00667848    -0.56000
O194        O  0.20451998  0.40869374  0.01428895    -0.56000
O195        O  0.21584693  0.37484734  0.08954878    -0.55200
O196        O  0.23888692  0.59373496  0.97966232    -0.56400
C197        C  0.25431939  0.65911249  0.96809436     0.76200
O198        O  0.19063366  0.64285175  0.91730184    -0.57500
C199        C  0.22200853  0.58174477  0.97705074     0.76200
C200        C  0.20211463  0.63697901  0.06091727     0.78600
Cd201      Cd  0.21870252  0.62850756  0.97167164     1.37500
O202        O  0.25767440  0.63869944  0.96573306    -0.56400
O203        O  0.22174201  0.63189641  0.05320552    -0.55200
C204        C  0.19977825  0.63491526  0.88279374     0.78600
O205        O  0.18959438  0.63832848  0.02678200    -0.57600
O206        O  0.23458751  0.66508875  0.97120344    -0.56000
O207        O  0.20394240  0.59151529  0.97186872    -0.56000
O208        O  0.21709991  0.62415877  0.88993847    -0.55200
C209        C  0.24206477  0.47487561  0.97610715    -0.26800
C210        C  0.22569286  0.48769576  0.99587861     0.06800
C211        C  0.20920923  0.47732626  0.02077572     0.26500
C212        C  0.20859981  0.45461070  0.02402756    -0.11300
C213        C  0.22459300  0.44173618  0.00333307    -0.25200
C214        C  0.24170245  0.45207924  0.98015002     0.37300
C215        C  0.22529219  0.51172842  0.98941022     0.06900
F216        F  0.19370782  0.48916467  0.04223976    -0.19000
H217        H  0.19550394  0.44706650  0.04280015     0.16700
F218        F  0.25761483  0.44021437  0.96006752    -0.22700
H219        H  0.25484371  0.48247174  0.95653105     0.18500
C220        C  0.24408828  0.52459530  0.99635894     0.26500
C221        C  0.24298036  0.54734823  0.99198389    -0.11200
C222        C  0.22321090  0.55763354  0.98019637    -0.25300
C223        C  0.20460007  0.54464073  0.97190888     0.37400
C224        C  0.20571126  0.52197944  0.97647316    -0.26900
F225        F  0.26336490  0.51527044  0.00853326    -0.19000
H226        H  0.25756851  0.55694352  0.99835137     0.16700
F227        F  0.18529972  0.55373089  0.95910372    -0.22700
H228        H  0.19117573  0.51236102  0.96968440     0.18500
C229        C  0.20042022  0.35698710  0.79186287    -0.26800
C230        C  0.17834663  0.35296371  0.78187123     0.06800
C231        C  0.16327315  0.35221506  0.81745792     0.26500
C232        C  0.17025646  0.35588381  0.86185608    -0.11300
C233        C  0.19238925  0.36004310  0.87168424    -0.25200
C234        C  0.20742258  0.36046526  0.83599096     0.37300
C235        C  0.17168904  0.34847972  0.73455347     0.06900
F236        F  0.14179058  0.34810841  0.80937227    -0.19000
H237        H  0.15835470  0.35534047  0.88856847     0.16700
F238        F  0.22905331  0.36399153  0.84348139    -0.22700
H239        H  0.21247960  0.35695345  0.76541572     0.18500
C240        C  0.17947108  0.36143621  0.69886442     0.26500
C241        C  0.17497850  0.35564996  0.65420791    -0.11200
C242        C  0.16255805  0.33694336  0.64418835    -0.25300
C243        C  0.15422159  0.32438661  0.67998432     0.34200
C244        C  0.15882317  0.33010911  0.72449408    -0.26900
F245        F  0.19158229  0.37962304  0.70711179    -0.19000
H246        H  0.18155172  0.36562436  0.62744833     0.16700
F247        F  0.14231148  0.30601509  0.67222170    -0.22700
H248        H  0.15300430  0.31959899  0.75113145     0.18500
C249        C  0.19255077  0.34760145  0.31323999    -0.26800
C250        C  0.17550463  0.34592343  0.28128664     0.06800
C251        C  0.15467594  0.33943565  0.29593322     0.26500
C252        C  0.15119462  0.33452154  0.34122597    -0.11300
C253        C  0.16822957  0.33618884  0.37305759    -0.25200
C254        C  0.18896713  0.34301305  0.35870833     0.37300
C255        C  0.17979063  0.35098482  0.23311288     0.06900
F256        F  0.13757088  0.33815150  0.26673685    -0.19000
H257        H  0.13503863  0.32933723  0.35148006     0.16700
F258        F  0.20600295  0.34430381  0.38807992    -0.22700
H259        H  0.20887320  0.35212287  0.30281962     0.18500
C260        C  0.19188338  0.36967489  0.22149575     0.26500
C261        C  0.19787038  0.37339967  0.17698861    -0.11200
C262        C  0.19136812  0.35903571  0.14256412    -0.25300
C263        C  0.17825330  0.34091142  0.15357650     0.37400
C264        C  0.17271815  0.33684081  0.19854845    -0.26900
F265        F  0.19775063  0.38454200  0.25322471    -0.19000
H266        H  0.20762180  0.38771616  0.16941912     0.16700
F267        F  0.17150243  0.32670586  0.12128573    -0.22700
H268        H  0.16342628  0.32227483  0.20648022     0.18500
C269        C  0.00401248  0.28205408  0.49559262    -0.26800
C270        C  0.01528633  0.30139969  0.50622536     0.06800
C271        C  0.00334444  0.32009441  0.51825996     0.26500
C272        C  0.98059007  0.31934547  0.51975636    -0.11300
C273        C  0.96924224  0.30001758  0.50923206    -0.25200
C274        C  0.98118953  0.28129190  0.49704226     0.37300
C275        C  0.03943504  0.30208936  0.50451235     0.06900
F276        F  0.01366610  0.33901936  0.52935398    -0.19000
H277        H  0.97184087  0.33399209  0.52925525     0.16700
F278        F  0.97091295  0.26238682  0.48569238    -0.22700
H279        H  0.01290111  0.26758059  0.48549994     0.18500
C280        C  0.05215468  0.28610714  0.52639777     0.26500
C281        C  0.07495201  0.28740273  0.52565754    -0.11200
C282        C  0.08537176  0.30477895  0.50364212    -0.25300
C283        C  0.07266247  0.32045555  0.48089039     0.37400
C284        C  0.04991385  0.31904042  0.48127559    -0.26900
F285        F  0.04255623  0.26973998  0.54992382    -0.19000
H286        H  0.08444762  0.27516455  0.54342727     0.16700
F287        F  0.08220716  0.33699549  0.45776793    -0.22700
H288        H  0.04043185  0.33122286  0.46332142     0.18500
C289        C  0.16584278  0.64657477  0.16251469    -0.26800
C290        C  0.18139356  0.64836799  0.19736323     0.06800
C291        C  0.20368127  0.64649575  0.18689952     0.26500
C292        C  0.21016694  0.64278841  0.14256749    -0.11300
C293        C  0.19464109  0.64104082  0.10757196    -0.25200
C294        C  0.17233441  0.64302005  0.11804011     0.37300
C295        C  0.17432385  0.65277058  0.24422431     0.06900
F296        F  0.21923863  0.64893851  0.21929825    -0.19000
H297        H  0.22747317  0.64152900  0.13557470     0.16700
F298        F  0.15676213  0.64132238  0.08551240    -0.22700
H299        H  0.14857600  0.64785777  0.16983843     0.18500
C300        C  0.16071476  0.67063729  0.25376308     0.26500
C301        C  0.15473597  0.67521423  0.29805932    -0.11200
C302        C  0.16198842  0.66199493  0.33392858    -0.25300
C303        C  0.17511279  0.64370983  0.32418213     0.37400
C304        C  0.18132890  0.63929956  0.27980335    -0.26900
F305        F  0.15379426  0.68413931  0.22036720    -0.19000
H306        H  0.14465315  0.68941795  0.30431259     0.16700
F307        F  0.18208528  0.63016566  0.35742197    -0.22700
H308        H  0.19158412  0.62526263  0.27313516     0.18500
C309        C  0.16596499  0.63608381  0.66923301    -0.26800
C310        C  0.17175077  0.65271960  0.69975423     0.06800
C311        C  0.17338584  0.67430363  0.68400564     0.26500
C312        C  0.16915675  0.67908147  0.63887978    -0.11300
C313        C  0.16340353  0.66250893  0.60814181    -0.25200
C314        C  0.16177897  0.64086609  0.62384848     0.37300
C315        C  0.17749405  0.64727849  0.74708782     0.06900
F316        F  0.17991952  0.69069430  0.71179289    -0.19000
H317        H  0.17069237  0.69588837  0.62787585     0.16700
F318        F  0.15597880  0.62437756  0.59568274    -0.22700
H319        H  0.16469451  0.61932113  0.68064989     0.18500
C320        C  0.16782564  0.65819475  0.78354925     0.26500
C321        C  0.17468140  0.65375399  0.82773493    -0.11200
C322        C  0.19120504  0.63830502  0.83638037    -0.25300
C323        C  0.20009474  0.62672148  0.79984639     0.37400
C324        C  0.19335186  0.63127936  0.75585406    -0.26900
F325        F  0.15164225  0.67299670  0.77647641    -0.19000
H326        H  0.16731248  0.66268056  0.85512325     0.16700
F327        F  0.21539893  0.61097305  0.80640747    -0.22700
H328        H  0.20089128  0.62255392  0.72837092     0.18500
C329        C  0.00045923  0.67317467  0.53696440    -0.26800
C330        C  0.00876340  0.69016562  0.51027371     0.06800
C331        C  0.99428763  0.70613499  0.49349377     0.26500
C332        C  0.97201063  0.70507724  0.50372918    -0.11300
C333        C  0.96373025  0.68766086  0.52925683    -0.25200
C334        C  0.97816650  0.67169967  0.54580110     0.37300
C335        C  0.03233256  0.69022648  0.49889279     0.06900
F336        F  0.00138379  0.72195820  0.46513372    -0.19000
H337        H  0.96105120  0.71726422  0.48978672     0.16700
F338        F  0.97072616  0.65456537  0.57032360    -0.22700
H339        H  0.01126516  0.66075746  0.55050114     0.18500
C340        C  0.04529525  0.70913099  0.50347704     0.26500
C341        C  0.06778082  0.70819506  0.49534942    -0.11200
C342        C  0.07775416  0.68840559  0.48302143    -0.25300
C343        C  0.06468663  0.66961923  0.47783755     0.37400
C344        C  0.04225568  0.67063107  0.48541095    -0.26900
F345        F  0.03649253  0.72823549  0.51778044    -0.19000
H346        H  0.07748540  0.72284863  0.49992913     0.16700
F347        F  0.07352462  0.65014276  0.46590530    -0.22700
H348        H  0.03260125  0.65591941  0.48119121     0.18500
C349        C  0.86593570  0.34594697  0.31604477    -0.26800
C350        C  0.87513360  0.33392155  0.28056015     0.06800
C351        C  0.89092542  0.31792802  0.29103540     0.26500
C352        C  0.89682858  0.31380753  0.33580537    -0.11300
C353        C  0.88697113  0.32522757  0.37136512    -0.25200
C354        C  0.87156792  0.34155450  0.36089641     0.37300
C355        C  0.86770827  0.33769316  0.23317301     0.06900
F356        F  0.89989443  0.30545066  0.25829137    -0.19000
H357        H  0.90867533  0.30107043  0.34267071     0.16700
F358        F  0.86135397  0.35280801  0.39391250    -0.22700
H359        H  0.85409890  0.35867100  0.30910847     0.18500
C360        C  0.84532528  0.33995654  0.22264353     0.26500
C361        C  0.83847330  0.34353635  0.17830347    -0.11200
C362        C  0.85362631  0.34472880  0.14310625    -0.25300
C363        C  0.87600086  0.34237478  0.15342537     0.37400
C364        C  0.88290488  0.33899180  0.19796770    -0.26900
F365        F  0.82991415  0.33816220  0.25500165    -0.19000
H366        H  0.82113289  0.34519100  0.17150251     0.16700
F367        F  0.89127088  0.34369785  0.12071168    -0.22700
H368        H  0.90024829  0.33770412  0.20499461     0.18500
C369        C  0.84842017  0.34999491  0.79170892    -0.26800
C370        C  0.86878635  0.34044305  0.78304760     0.06800
C371        C  0.88258543  0.33527840  0.81980106     0.26500
C372        C  0.87558610  0.33870354  0.86404938    -0.11300
C373        C  0.85490614  0.34770200  0.87253233    -0.25200
C374        C  0.84152946  0.35361840  0.83567986     0.37300
C375        C  0.87479734  0.33506139  0.73580553     0.06900
F376        F  0.90293862  0.32717272  0.81303168    -0.19000
H377        H  0.88635791  0.33431622  0.89165372     0.16700
F378        F  0.82142917  0.36244061  0.84188731    -0.22700
H379        H  0.83742336  0.35407990  0.76427938     0.18500
C380        C  0.88314771  0.31434101  0.72486757     0.26500
C381        C  0.88789994  0.30904240  0.68034670    -0.11200
C382        C  0.88403055  0.32398815  0.64524522    -0.25300
C383        C  0.87519688  0.34457938  0.65587947     0.37400
C384        C  0.87077543  0.35004794  0.70072282    -0.26900
F385        F  0.88578034  0.29873934  0.75687336    -0.19000
H386        H  0.89426531  0.29290110  0.67329589     0.16700
F387        F  0.87073945  0.35939556  0.62313418    -0.22700
H388        H  0.86411685  0.36604305  0.70804283     0.18500
C389        C  0.88608423  0.63462362  0.84709759    -0.26800
C390        C  0.86971204  0.63766334  0.81413704     0.06800
C391        C  0.84770572  0.63701379  0.82724582     0.26500
C392        C  0.84225218  0.63322850  0.87203171    -0.11300
C393        C  0.85852361  0.63014108  0.90506154    -0.25200
C394        C  0.88059501  0.63096780  0.89222054     0.37300
C395        C  0.87546581  0.64242617  0.76658342     0.06900
F396        F  0.83140766  0.64069992  0.79698244    -0.19000
H397        H  0.82511961  0.63290082  0.88093772     0.16700
F398        F  0.89681148  0.62777519  0.92289290    -0.22700
H399        H  0.90316076  0.63494518  0.83779540     0.18500
C400        C  0.89016153  0.65932590  0.75628842     0.26500
C401        C  0.89412141  0.66501615  0.71158329    -0.11200
C402        C  0.88354255  0.65407683  0.67594530    -0.25300
C403        C  0.86921068  0.63675608  0.68614722     0.37400
C404        C  0.86528788  0.63102091  0.73103700    -0.26900
F405        F  0.89987979  0.67112739  0.78950241    -0.19000
H406        H  0.90522304  0.67841813  0.70492134     0.16700
F407        F  0.85840961  0.62584942  0.65303239    -0.22700
H408        H  0.85398916  0.61783395  0.73810730     0.18500
C409        C  0.85174536  0.62859220  0.25699387    -0.26800
C410        C  0.87331504  0.63500147  0.26636114     0.06800
C411        C  0.88810515  0.63706346  0.23056053     0.26500
C412        C  0.88109670  0.63345928  0.18620113    -0.11300
C413        C  0.85937533  0.62736656  0.17684819    -0.25200
C414        C  0.84480341  0.62475266  0.21293294     0.37300
C415        C  0.87954276  0.64057537  0.31331920     0.06900
F416        F  0.90936937  0.64223576  0.23848040    -0.19000
H417        H  0.89271860  0.63525773  0.15918702     0.16700
F418        F  0.82361894  0.61902137  0.20578216    -0.22700
H419        H  0.84000918  0.62708223  0.28389524     0.18500
C420        C  0.88915210  0.66087316  0.32347776     0.26500
C421        C  0.89238405  0.66714898  0.36814404    -0.11200
C422        C  0.88602971  0.65344576  0.40373948    -0.25300
C423        C  0.87692708  0.63289567  0.39362060     0.37400
C424        C  0.87375293  0.62657204  0.34881285    -0.26900
F425        F  0.89424340  0.67523159  0.29037817    -0.19000
H426        H  0.89940494  0.68309534  0.37480913     0.16700
F427        F  0.87044473  0.61920221  0.42682918    -0.22700
H428        H  0.86627043  0.61087590  0.34176036     0.18500
C429        C  0.84931202  0.50898092  0.03732310    -0.26800
C430        C  0.83096346  0.49905329  0.01733488     0.06800
C431        C  0.81371225  0.51224439  0.00169086     0.26500
C432        C  0.81467490  0.53491343  0.00687550    -0.11300
C433        C  0.83298245  0.54485102  0.02705846    -0.25200
C434        C  0.85044491  0.53166981  0.04189552     0.37300
C435        C  0.82975735  0.47495108  0.01376541     0.06900
F436        F  0.79614949  0.50324736  0.98052342    -0.19000
H437        H  0.80116490  0.54472699  0.99457299     0.16700
F438        F  0.86845073  0.54060476  0.06154656    -0.22700
H439        H  0.86268506  0.49910158  0.05000849     0.18500
C440        C  0.84718426  0.46294290  0.99578002     0.26500
C441        C  0.84608902  0.44017332  0.99376934    -0.11200
C442        C  0.82767537  0.42889620  0.00976421    -0.25300
C443        C  0.81016734  0.44094936  0.02752190     0.37400
C444        C  0.81126768  0.46376102  0.02944931    -0.26900
F445        F  0.86517686  0.47322541  0.97968091    -0.19000
H446        H  0.85977518  0.43134691  0.97975142     0.16700
F447        F  0.79221344  0.43076444  0.04397364    -0.22700
H448        H  0.79780730  0.47270680  0.04407722     0.18500
C449        C  0.31029363  0.68519653  0.95474697    -0.26800
C450        C  0.30572819  0.70715608  0.96468273     0.06800
C451        C  0.28435931  0.71297474  0.97704479     0.26500
C452        C  0.26787097  0.69721913  0.97821792    -0.11300
C453        C  0.27229741  0.67531039  0.96752756    -0.25200
C454        C  0.29380155  0.66935316  0.95630624     0.37300
C455        C  0.32295087  0.72410124  0.96046044     0.06900
F456        F  0.27944554  0.73388688  0.98842059    -0.19000
H457        H  0.25151003  0.70223648  0.98765151     0.16700
F458        F  0.29882377  0.64837548  0.94579242    -0.22700
H459        H  0.32661748  0.68036272  0.94467802     0.18500
C460        C  0.34375573  0.72139229  0.98023674     0.26500
C461        C  0.35951392  0.73790628  0.97659201    -0.11200
C462        C  0.35468355  0.75743592  0.95375073    -0.25300
C463        C  0.33404920  0.75989953  0.93326108     0.37400
C464        C  0.31846902  0.74333175  0.93638613    -0.26900
F465        F  0.34854284  0.70320466  0.00451631    -0.19000
H466        H  0.37528550  0.73572043  0.99296322     0.16700
F467        F  0.32893194  0.77829772  0.90996062    -0.22700
H468        H  0.30273550  0.74556639  0.91990144     0.18500
C469        C  0.73691471  0.72817563  0.02243171    -0.26800
C470        C  0.72938295  0.70681671  0.02991449     0.06800
C471        C  0.70695325  0.70328806  0.03695520     0.26500
C472        C  0.69240260  0.72091633  0.03610301    -0.11300
C473        C  0.69997961  0.74223748  0.02792601    -0.25200
C474        C  0.72243162  0.74566692  0.02077895     0.37300
C475        C  0.74527923  0.68860789  0.03004943     0.06900
F476        F  0.69902448  0.68280080  0.04329705    -0.19000
H477        H  0.67517958  0.71785071  0.04144748     0.16700
F478        F  0.73046484  0.76583175  0.01128561    -0.22700
H479        H  0.75416351  0.73136546  0.01767636     0.18500
C480        C  0.76133125  0.68748550  0.99655544     0.26500
C481        C  0.77825394  0.67240734  0.00005902    -0.11200
C482        C  0.77908818  0.65766748  0.03600512    -0.25300
C483        C  0.76228412  0.65761198  0.06787798     0.37400
C484        C  0.74562295  0.67324040  0.06520877    -0.26900
F485        F  0.76077985  0.70113767  0.96059115    -0.19000
H486        H  0.79081160  0.67225259  0.97458694     0.16700
F487        F  0.76265339  0.64333708  0.10279364    -0.22700
H488        H  0.73349952  0.67385854  0.09149307     0.18500
C489        C  0.55020066  0.81412418  0.02751913    -0.26800
C490        C  0.53909640  0.79818205  0.00229223     0.06800
C491        C  0.55094429  0.78055431  0.98434674     0.26500
C492        C  0.57363628  0.77947864  0.99017703    -0.11300
C493        C  0.58485993  0.79603628  0.01355651    -0.25200
C494        C  0.57284006  0.81308009  0.03327924     0.37300
C495        C  0.51543576  0.80078616  0.99291121     0.06900
F496        F  0.54078394  0.76503509  0.95912690    -0.19000
H497        H  0.58252749  0.76615971  0.97483033     0.16700
F498        F  0.58295440  0.82882803  0.05796419    -0.22700
H499        H  0.54131375  0.82760215  0.04229511     0.18500
C500        C  0.50065763  0.78368590  0.00104725     0.26500
C501        C  0.47849110  0.78632208  0.99109294    -0.11200
C502        C  0.47053430  0.80613015  0.97356364    -0.25300
C503        C  0.48528632  0.82336909  0.96582556     0.37400
C504        C  0.50753732  0.82063451  0.97539558    -0.26900
F505        F  0.50751149  0.76465963  0.01988026    -0.19000
H506        H  0.46743079  0.77292759  0.99808347     0.16700
F507        F  0.47834586  0.84270064  0.94846336    -0.22700
H508        H  0.51869791  0.83398360  0.96868654     0.18500
C509        C  0.26404416  0.78341817  0.48181497    -0.26800
C510        C  0.24273834  0.78872313  0.46795635     0.06800
C511        C  0.23805072  0.81018285  0.45414078     0.26500
C512        C  0.25468432  0.82585976  0.45286486    -0.11300
C513        C  0.27620153  0.82035403  0.46529343    -0.25200
C514        C  0.28064864  0.79904743  0.48066228     0.37300
C515        C  0.22574869  0.77156084  0.46680527     0.06900
F516        F  0.21760896  0.81573734  0.44026319    -0.19000
H517        H  0.25081803  0.84219095  0.44117986     0.16700
F518        F  0.30098028  0.79330866  0.49490401    -0.22700
H519        H  0.26783039  0.76705060  0.49343280     0.18500
C520        C  0.22937339  0.75203324  0.44318654     0.26500
C521        C  0.21361260  0.73555768  0.44311448    -0.11200
C522        C  0.19395859  0.73825019  0.46646806    -0.25300
C523        C  0.19022691  0.75785803  0.48988041     0.37400
C524        C  0.20603776  0.77439506  0.48990181    -0.26900
F525        F  0.24809069  0.74898793  0.41980268    -0.19000
H526        H  0.21679131  0.72063318  0.42469261     0.16700
F527        F  0.17176540  0.76068780  0.51418884    -0.22700
H528        H  0.20312219  0.78924175  0.50877792     0.18500
C529        C  0.35344733  0.86224945  0.67352578    -0.26800
C530        C  0.37423305  0.85320366  0.68079228     0.06800
C531        C  0.38695988  0.84766684  0.64317870     0.26500
C532        C  0.37878067  0.85076884  0.59938820    -0.11300
C533        C  0.35772519  0.85934105  0.59217875    -0.25200
C534        C  0.34522573  0.86525960  0.62997322     0.37300
C535        C  0.38151419  0.84786205  0.72748545     0.06900
F536        F  0.40732227  0.83926536  0.64878495    -0.19000
H537        H  0.38883524  0.84620081  0.57112693     0.16700
F538        F  0.32482853  0.87369654  0.62512919    -0.22700
H539        H  0.34318304  0.86634404  0.70178207     0.18500
C540        C  0.38012383  0.86321833  0.76267983     0.26500
C541        C  0.38483191  0.85703823  0.80720357    -0.11200
C542        C  0.39099798  0.83545554  0.81758512    -0.25300
C543        C  0.39293245  0.82032189  0.78202204     0.37400
C544        C  0.38824585  0.82651366  0.73773746    -0.26900
F545        F  0.37415431  0.88417802  0.75404635    -0.19000
H546        H  0.38336189  0.86908984  0.83364940     0.16700
F547        F  0.39859565  0.79921964  0.78996606    -0.22700
H548        H  0.38909825  0.81428745  0.71149681     0.18500
C549        C  0.38005829  0.84771244  0.26487923    -0.26800
C550        C  0.36623030  0.85329267  0.22859582     0.06800
C551        C  0.34588826  0.86291077  0.23816580     0.26500
C552        C  0.33941805  0.86625519  0.28278222    -0.11300
C553        C  0.35300305  0.86018692  0.31913139    -0.25200
C554        C  0.37363316  0.85116084  0.30954097     0.37300
C555        C  0.37238377  0.84738069  0.18149315     0.06900
F556        F  0.33171780  0.86809525  0.20452142    -0.19000
H557        H  0.32346883  0.87327282  0.28885200     0.16700
F558        F  0.38748857  0.84524681  0.34321736    -0.22700
H559        H  0.39585556  0.84039354  0.25860062     0.18500
C560        C  0.37026434  0.86221325  0.14537487     0.26500
C561        C  0.37531558  0.85576042  0.10131626    -0.11200
C562        C  0.38283520  0.83451783  0.09224941    -0.25300
C563        C  0.38509800  0.81977096  0.12849261     0.37400
C564        C  0.37998419  0.82619645  0.17231503    -0.26900
F565        F  0.36385302  0.88312782  0.15267614    -0.19000
H566        H  0.37357551  0.86751189  0.07431693     0.16700
F567        F  0.39191859  0.79892223  0.12173830    -0.22700
H568        H  0.38157609  0.81434849  0.19919167     0.18500
C569        C  0.21161361  0.22058486  0.48720176    -0.26800
C570        C  0.23131140  0.22306751  0.51113996     0.06800
C571        C  0.23497780  0.24211577  0.53637513     0.26500
C572        C  0.21921246  0.25847907  0.53727107    -0.11300
C573        C  0.19960556  0.25620408  0.51287464    -0.25200
C574        C  0.19580386  0.23699933  0.48801572     0.37300
C575        C  0.24797722  0.20575660  0.50981137     0.06900
F576        F  0.25370765  0.24481142  0.56052066    -0.19000
H577        H  0.22246444  0.27306906  0.55687161     0.16700
F578        F  0.17720929  0.23433774  0.46343021    -0.22700
H579        H  0.20865641  0.20605526  0.46720804     0.18500
C580        C  0.24246794  0.18409330  0.52033487     0.26500
C581        C  0.25845314  0.16788993  0.52000251    -0.11200
C582        C  0.28019676  0.17305446  0.50953053    -0.25300
C583        C  0.28566851  0.19478981  0.49873234     0.37400
C584        C  0.26960906  0.21094096  0.49873435    -0.26900
F585        F  0.22178830  0.17875386  0.53240906    -0.19000
H586        H  0.25384771  0.15132540  0.52873651     0.16700
F587        F  0.30646391  0.20051588  0.48828451    -0.22700
H588        H  0.27406079  0.22756683  0.49010152     0.18500
C589        C  0.29872574  0.96946867  0.50326778    -0.26800
C590        C  0.31398311  0.98364841  0.48365613     0.06800
C591        C  0.33019650  0.97501695  0.45558792     0.26500
C592        C  0.33188221  0.95255076  0.44925930    -0.11300
C593        C  0.31721470  0.93822876  0.47002936    -0.25200
C594        C  0.30026178  0.94684317  0.49647383     0.37300
C595        C  0.31454921  0.00712815  0.49528069     0.06900
F596        F  0.34467786  0.98837641  0.43478515    -0.19000
H597        H  0.34485241  0.94631326  0.42827528     0.16700
F598        F  0.28598058  0.93341141  0.51766082    -0.22700
H599        H  0.28622267  0.97583674  0.52526719     0.18500
C600        C  0.29645271  0.02089313  0.48835784     0.26500
C601        C  0.29846357  0.04344783  0.49580267    -0.11200
C602        C  0.31853756  0.05248619  0.51003601    -0.25300
C603        C  0.33631865  0.03843653  0.51832582     0.37400
C604        C  0.33419872  0.01605847  0.51138882    -0.26900
F605        F  0.27728443  0.01273305  0.47230294    -0.19000
H606        H  0.28453203  0.05390332  0.48908005     0.16700
F607        F  0.35608986  0.04628796  0.53164398    -0.22700
H608        H  0.34823108  0.00564596  0.51749419     0.18500
C609        C  0.73723091  0.30076630  0.98115784    -0.26800
C610        C  0.74304145  0.27857670  0.97827928     0.06800
C611        C  0.76529376  0.27288985  0.97892627     0.26500
C612        C  0.78127791  0.28898465  0.98377067    -0.11300
C613        C  0.77555590  0.31112797  0.98797845    -0.25200
C614        C  0.75329970  0.31695757  0.98589424     0.37300
C615        C  0.72600956  0.26131905  0.97626451     0.06900
F616        F  0.77164568  0.25166385  0.97665467    -0.19000
H617        H  0.79824571  0.28398399  0.98485829     0.16700
F618        F  0.74699142  0.33815949  0.98909620    -0.22700
H619        H  0.72020151  0.30555800  0.97992906     0.18500
C620        C  0.70862368  0.26118401  0.00697178     0.26500
C621        C  0.69337637  0.24416979  0.00639801    -0.11200
C622        C  0.69550283  0.22678658  0.97603912    -0.25300
C623        C  0.71276985  0.22689395  0.94525135     0.37400
C624        C  0.72768917  0.24418202  0.94501541    -0.26900
F625        F  0.70691279  0.27694747  0.03883461    -0.19000
H626        H  0.68029212  0.24420498  0.03072139     0.16700
F627        F  0.71504176  0.21045136  0.91501377    -0.22700
H628        H  0.74071226  0.24409067  0.92058673     0.18500
C629        C  0.34045425  0.27763352  0.00227651    -0.26800
C630        C  0.32055949  0.27567329  0.02515118     0.06800
C631        C  0.31614843  0.25634588  0.04906190     0.26500
C632        C  0.33083988  0.23894910  0.04812732    -0.11300
C633        C  0.35044028  0.24060295  0.02420562    -0.25200
C634        C  0.35537143  0.26028606  0.00194819     0.37300
C635        C  0.30359804  0.29284017  0.02130590     0.06900
F636        F  0.29748818  0.25423323  0.07310659    -0.19000
H637        H  0.32683943  0.22408988  0.06612493     0.16700
F638        F  0.37406292  0.26238095  0.97807711    -0.22700
H639        H  0.34408175  0.29227892  0.98323402     0.18500
C640        C  0.30828385  0.31505707  0.02905007     0.26500
C641        C  0.29155506  0.33062490  0.02649890    -0.11200
C642        C  0.26998710  0.32426861  0.01626672    -0.25300
C643        C  0.26546797  0.30205743  0.00811508     0.37400
C644        C  0.28215630  0.28667037  0.01008570    -0.26900
F645        F  0.32881335  0.32163641  0.04020704    -0.19000
H646        H  0.29545189  0.34763123  0.03294992     0.16700
F647        F  0.24491519  0.29503937  0.99834334    -0.22700
H648        H  0.27825459  0.26973432  0.00293441     0.18500
C649        C  0.38480471  0.14100499  0.32676756    -0.26800
C650        C  0.36992578  0.13865916  0.29070832     0.06800
C651        C  0.34838156  0.13216084  0.30012713     0.26500
C652        C  0.34185243  0.12862683  0.34441252    -0.11300
C653        C  0.35649011  0.13156540  0.38063833    -0.25200
C654        C  0.37818449  0.13763934  0.37131349     0.37300
C655        C  0.37636176  0.14437787  0.24386780     0.06900
F656        F  0.33326118  0.13018740  0.26674152    -0.19000
H657        H  0.32502063  0.12400964  0.35033146     0.16700
F658        F  0.39294268  0.14055852  0.40505629    -0.22700
H659        H  0.40157585  0.14569874  0.32046019     0.18500
C660        C  0.38701344  0.16426791  0.23478276     0.26500
C661        C  0.39105643  0.17063828  0.19047291    -0.11200
C662        C  0.38463498  0.15739931  0.15400853    -0.25300
C663        C  0.37475004  0.13708975  0.16307770     0.37400
C664        C  0.37068002  0.13070722  0.20753494    -0.26900
F665        F  0.39256646  0.17813322  0.26860586    -0.19000
H666        H  0.39878650  0.18631462  0.18473048     0.16700
F667        F  0.36866443  0.12354143  0.12910758    -0.22700
H668        H  0.36281754  0.11512201  0.21357271     0.18500
C669        C  0.34137148  0.13780919  0.73342396    -0.26800
C670        C  0.36340712  0.14073836  0.74525591     0.06800
C671        C  0.37932618  0.13930151  0.71141358     0.26500
C672        C  0.37312012  0.13575634  0.66650160    -0.11300
C673        C  0.35096641  0.13346621  0.65445343    -0.25200
C674        C  0.33514234  0.13429355  0.68870165     0.37300
C675        C  0.36926797  0.14663115  0.79237740     0.06900
F676        F  0.40088866  0.14119031  0.72179600    -0.19000
H677        H  0.38566884  0.13489706  0.64112286     0.16700
F678        F  0.31352160  0.13210556  0.67912961    -0.22700
H679        H  0.32882213  0.13892088  0.75879093     0.18500
C680        C  0.38156405  0.16555114  0.80150175     0.26500
C681        C  0.38561709  0.17203645  0.84583212    -0.11200
C682        C  0.37748642  0.15991187  0.88227957    -0.25300
C683        C  0.36525269  0.14087361  0.87320752     0.37400
C684        C  0.36115878  0.13439068  0.82867017    -0.26900
F685        F  0.38886455  0.17835852  0.76751598    -0.19000
H686        H  0.39498915  0.18682141  0.85155777     0.16700
F687        F  0.35701980  0.12865947  0.90718181    -0.22700
H688        H  0.35150238  0.11983575  0.82244686     0.18500
C689        C  0.49697834  0.16639307  0.97770404    -0.26800
C690        C  0.50978973  0.18241465  0.99904194     0.06800
C691        C  0.49944774  0.19880953  0.02423262     0.26500
C692        C  0.47670398  0.19908042  0.02764599    -0.11300
C693        C  0.46389466  0.18288464  0.00692927    -0.25200
C694        C  0.47428667  0.16640572  0.98192047     0.37300
C695        C  0.53389832  0.18146821  0.99591131     0.06900
F696        F  0.51140291  0.21403148  0.04675375    -0.19000
H697        H  0.46893564  0.21202197  0.04782188     0.16700
F698        F  0.46254687  0.15050179  0.96094098    -0.22700
H699        H  0.50466535  0.15366170  0.95753532     0.18500
C700        C  0.54496850  0.16183127  0.00504030     0.26500
C701        C  0.56759580  0.16079330  0.00148263    -0.11200
C702        C  0.57976083  0.17926402  0.98919277    -0.25300
C703        C  0.56875535  0.19905161  0.98040268     0.37400
C704        C  0.54599058  0.20002619  0.98364627    -0.26900
F705        F  0.53392814  0.14375260  0.01850266    -0.19000
H706        H  0.57570894  0.14528418  0.00892967     0.16700
F707        F  0.57989222  0.21732608  0.96839493    -0.22700
H708        H  0.53764304  0.21544048  0.97603172     0.18500
C709        C  0.80412799  0.80404276  0.52895942    -0.26800
C710        C  0.79923475  0.78313619  0.51216149     0.06800
C711        C  0.77862630  0.77918964  0.49274864     0.26500
C712        C  0.76281071  0.79554983  0.49243946    -0.11300
C713        C  0.76736513  0.81625255  0.51071813    -0.25200
C714        C  0.78841798  0.82059810  0.52786279     0.37300
C715        C  0.81526275  0.76524987  0.51679149     0.06900
F716        F  0.77381674  0.75951750  0.47398588    -0.19000
H717        H  0.74688252  0.79192021  0.47812893     0.16700
F718        F  0.79364699  0.84054069  0.54481839    -0.22700
H719        H  0.81995136  0.80738187  0.54405409     0.18500
C720        C  0.83695352  0.76799220  0.50279841     0.26500
C721        C  0.85206620  0.75114995  0.50882469    -0.11200
C722        C  0.84573640  0.73125398  0.52839332    -0.25300
C723        C  0.82393099  0.72840436  0.54182227     0.37400
C724        C  0.80890748  0.74535959  0.53632164    -0.26900
F725        F  0.84339705  0.78676951  0.48249301    -0.19000
H726        H  0.86868847  0.75356029  0.49757533     0.16700
F727        F  0.81723199  0.70948892  0.56122726    -0.22700
H728        H  0.79231682  0.74306404  0.54788379     0.18500
C729        C  0.68720962  0.84130643  0.21332657    -0.26800
C730        C  0.67401211  0.83232045  0.24715686     0.06800
C731        C  0.65665372  0.81850470  0.23485132     0.26500
C732        C  0.65310777  0.81318863  0.18973090    -0.11300
C733        C  0.66660308  0.82169579  0.15583928    -0.25200
C734        C  0.68354881  0.83614701  0.16803537     0.37300
C735        C  0.67918552  0.83653453  0.29514539     0.06900
F736        F  0.64369729  0.80937829  0.26657915    -0.19000
H737        H  0.63988646  0.80208318  0.18138091     0.16700
F738        F  0.69701912  0.84472027  0.13657837    -0.22700
H739        H  0.70057673  0.85216517  0.22212791     0.18500
C740        C  0.70042597  0.83280467  0.31160567     0.26500
C741        C  0.70572509  0.83772658  0.35606307    -0.11200
C742        C  0.68990190  0.84599100  0.38542851    -0.25300
C743        C  0.66835463  0.84880241  0.36979559     0.37400
C744        C  0.66310201  0.84424269  0.32477117    -0.26900
F745        F  0.71601214  0.82407295  0.28482375    -0.19000
H746        H  0.72233129  0.83497731  0.36767230     0.16700
F747        F  0.65268636  0.85675604  0.39735656    -0.22700
H748        H  0.64659571  0.84713930  0.31277373     0.18500
C749        C  0.67378584  0.81229612  0.80389379    -0.26800
C750        C  0.68139346  0.83346118  0.79493676     0.06800
C751        C  0.68463584  0.84798985  0.83116199     0.26500
C752        C  0.68002347  0.84137415  0.87527140    -0.11300
C753        C  0.67217529  0.82019405  0.88408814    -0.25200
C754        C  0.66930611  0.80564677  0.84772038     0.37300
C755        C  0.68590813  0.83980716  0.74763817     0.06900
F756        F  0.69168098  0.86872965  0.82389751    -0.19000
H757        H  0.68245285  0.85288463  0.90248711     0.16700
F758        F  0.66203195  0.78492333  0.85417120    -0.22700
H759        H  0.67145887  0.80072347  0.77672617     0.18500
C760        C  0.70618805  0.84871999  0.73545587     0.26500
C761        C  0.71073787  0.85308608  0.69038030    -0.11200
C762        C  0.69535108  0.84842954  0.65626472    -0.25300
C763        C  0.67505840  0.83943089  0.66840787     0.37400
C764        C  0.67040801  0.83531315  0.71365600    -0.26900
F765        F  0.72205287  0.85221164  0.76677430    -0.19000
H766        H  0.72659187  0.85981172  0.68214881     0.16700
F767        F  0.65987284  0.83418736  0.63670467    -0.22700
H768        H  0.65471688  0.82828758  0.72218974     0.18500
C769        C  0.77997647  0.20471619  0.50463110    -0.26800
C770        C  0.80163521  0.19875438  0.49524275     0.06800
C771        C  0.80612890  0.17692015  0.48363290     0.26500
C772        C  0.78920847  0.16152653  0.48124243    -0.11300
C773        C  0.76748875  0.16764526  0.48974303    -0.25200
C774        C  0.76304243  0.18947880  0.50146180     0.37300
C775        C  0.81919353  0.21554647  0.49682005     0.06900
F776        F  0.82673284  0.17059095  0.47320825    -0.19000
H777        H  0.79307458  0.14485314  0.47199549     0.16700
F778        F  0.74237718  0.19614500  0.51044674    -0.22700
H779        H  0.77611200  0.22128982  0.51462293     0.18500
C780        C  0.81588792  0.23615833  0.47692004     0.26500
C781        C  0.83201754  0.25218832  0.47972711    -0.11200
C782        C  0.85198095  0.24799463  0.50155561    -0.25300
C783        C  0.85562026  0.22727846  0.52067410     0.37400
C784        C  0.83923257  0.21128391  0.51866049    -0.26900
F785        F  0.79720916  0.24074191  0.45389192    -0.19000
H786        H  0.82892866  0.26792812  0.46423923     0.16700
F787        F  0.87467253  0.22268851  0.54235966    -0.22700
H788        H  0.84207944  0.19566927  0.53483638     0.18500
C789        C  0.69719156  0.12678646  0.69989370    -0.26800
C790        C  0.67520595  0.13105349  0.70944185     0.06800
C791        C  0.66009647  0.13243511  0.67352952     0.26500
C792        C  0.66711279  0.13026039  0.62900958    -0.11300
C793        C  0.68923589  0.12639686  0.61953881    -0.25200
C794        C  0.70414698  0.12428172  0.65567885     0.37300
C795        C  0.66866015  0.13570635  0.75648853     0.06900
F796        F  0.63854200  0.13578960  0.68149507    -0.19000
H797        H  0.65524461  0.13161632  0.60198031     0.16700
F798        F  0.72566133  0.12028863  0.64851027    -0.22700
H799        H  0.70922502  0.12602185  0.72671077     0.18500
C800        C  0.67594083  0.12265144  0.79266755     0.26500
C801        C  0.67118622  0.12856390  0.83703754    -0.11200
C802        C  0.65917168  0.14759615  0.84617360    -0.25300
C803        C  0.65154448  0.16034895  0.80980893     0.37400
C804        C  0.65630894  0.15444768  0.76569157    -0.26900
F805        F  0.68774513  0.10424902  0.78518626    -0.19000
H806        H  0.67724534  0.11845162  0.86425676     0.16700
F807        F  0.64003919  0.17900025  0.81664683    -0.22700
H808        H  0.65094916  0.16505453  0.73865852     0.18500
C809        C  0.66516658  0.14255392  0.29024783    -0.26800
C810        C  0.67791516  0.13365660  0.25572433     0.06800
C811        C  0.69665129  0.12156958  0.26695659     0.26500
C812        C  0.70280384  0.11899039  0.31194881    -0.11300
C813        C  0.69039573  0.12833717  0.34666296    -0.25200
C814        C  0.67120281  0.13982468  0.33536545     0.37300
C815        C  0.67288189  0.13906444  0.20831261     0.06900
F816        F  0.70963438  0.11323637  0.23439190    -0.19000
H817        H  0.71760171  0.10996642  0.31952621     0.16700
F818        F  0.65855685  0.14889061  0.36763041    -0.22700
H819        H  0.65069297  0.15199130  0.28210526     0.18500
C820        C  0.66939439  0.12278308  0.17563038     0.26500
C821        C  0.66540380  0.12861726  0.13070930    -0.11200
C822        C  0.66465287  0.15073951  0.11794795    -0.25300
C823        C  0.66795243  0.16692849  0.15108239     0.37400
C824        C  0.67206611  0.16107047  0.19557195    -0.26900
F825        F  0.66933145  0.10134152  0.18735046    -0.19000
H826        H  0.66263412  0.11586809  0.10606829     0.16700
F827        F  0.66738300  0.18853111  0.14067530    -0.22700
H828        H  0.67485813  0.17382054  0.22023979     0.18500
C829        C  0.73614315  0.01468766  0.49565951    -0.26800
C830        C  0.71676268  0.00302160  0.48697999     0.06800
C831        C  0.69772139  0.01465031  0.47526934     0.26500
C832        C  0.69803907  0.03743799  0.47349349    -0.11300
C833        C  0.71733667  0.04912013  0.48283558    -0.25200
C834        C  0.73653608  0.03749192  0.49328801     0.37300
C835        C  0.71634341  0.97890207  0.49206509     0.06900
F836        F  0.67881874  0.00402275  0.46516805    -0.19000
H837        H  0.68306369  0.04595331  0.46489168     0.16700
F838        F  0.75557839  0.04808481  0.50224907    -0.22700
H839        H  0.75094274  0.00616211  0.50542737     0.18500
C840        C  0.73313834  0.96579326  0.47453374     0.26500
C841        C  0.73305910  0.94322186  0.48167825    -0.11200
C842        C  0.71600133  0.93323620  0.50540131    -0.25300
C843        C  0.69895410  0.94626173  0.52206713     0.37400
C844        C  0.69933149  0.96887424  0.51592486    -0.26900
F845        F  0.74935160  0.97470372  0.44958893    -0.19000
H846        H  0.74615187  0.93347493  0.46779401     0.16700
F847        F  0.68209768  0.93725311  0.54500221    -0.22700
H848        H  0.68641552  0.97860324  0.53048912     0.18500
loop_ 
_geom_bond_atom_site_label_1 
_geom_bond_atom_site_label_2 
_geom_bond_distance 
_geom_bond_site_symmetry_2 
_ccdc_geom_bond_type 
O1            C4   1.268       .  A
O1           Cd6   2.470       .  S
C2           O11   1.265       .  A
C2            O7   1.269       .  A
C2          C833   1.477       .  S
O3            C9   1.271       .  A
O3           Cd6   2.513       .  S
C4           O12   1.267       .  A
C4          C773   1.481       .  S
C5           O10   1.272       .  A
C5            O8   1.265       .  A
C5          C813   1.483       .  S
Cd6          O13   2.407       .  S
Cd6          O12   2.445       .  S
Cd6          O11   2.424       .  S
Cd6           O7   2.460       .  S
Cd6          O10   2.494       .  S
Cd6           O8   2.420       .  S
C9           O13   1.262       .  A
C9          C793   1.484       .  S
O14          C17   1.267       .  A
O14         Cd19   2.458       .  S
C15          O24   1.266       .  A
C15          O20   1.270       .  A
C15         C713   1.474       .  S
O16          C22   1.271       .  A
O16         Cd19   2.501       .  S
C17          O25   1.265       .  A
C17         C842   1.475       .  S
C18          O23   1.272       .  A
C18          O21   1.263       .  A
C18         C742   1.475       .  S
Cd19         O26   2.427       .  S
Cd19         O25   2.438       .  S
Cd19         O24   2.408       .  S
Cd19         O20   2.459       .  S
Cd19         O23   2.503       .  S
Cd19         O21   2.396       .  S
C22          O26   1.264       .  A
C22         C762   1.486       .  S
O27          C30   1.267       .  A
O27         Cd32   2.473       .  S
C28          O37   1.266       .  A
C28          O33   1.268       .  A
C28         C693   1.477       .  S
O29          C35   1.270       .  A
O29         Cd32   2.506       .  S
C30          O38   1.266       .  A
C30         C633   1.477       .  S
C31          O36   1.271       .  A
C31          O34   1.264       .  A
C31         C682   1.489       .  S
Cd32         O39   2.449       .  S
Cd32         O38   2.449       .  S
Cd32         O37   2.447       .  S
Cd32         O33   2.465       .  S
Cd32         O36   2.510   1_554  S
Cd32         O34   2.441   1_554  S
C35          O39   1.265       .  A
C35         C662   1.489       .  S
O40          C43   1.266       .  A
O40         Cd45   2.456       .  S
C41          O50   1.266       .  A
C41          O46   1.266       .  A
C41         C622   1.469       .  S
O42          C48   1.271       .  A
O42         Cd45   2.513   1_554  S
C43          O51   1.266       .  A
C43         C702   1.475       .  S
C44          O49   1.271       .  A
C44          O47   1.264       .  A
C44         C802   1.484       .  S
Cd45         O52   2.402   1_556  S
Cd45         O51   2.420       .  S
Cd45         O50   2.440       .  S
Cd45         O46   2.444       .  S
Cd45         O49   2.503       .  S
Cd45         O47   2.414       .  S
C48          O52   1.261       .  A
C48         C822   1.482       .  S
O53          C56   1.267       .  A
O53         Cd58   2.479       .  S
C54          O63   1.266       .  A
C54          O59   1.268       .  A
C54         C582   1.473       .  S
O55          C61   1.272       .  A
O55         Cd58   2.512       .  S
C56          O64   1.265       .  A
C56         C602   1.479       .  S
C57          O62   1.272       .  A
C57          O60   1.263       .  A
C57         C653   1.488       .  S
Cd58         O65   2.437       .  S
Cd58         O64   2.420       .  S
Cd58         O63   2.426       .  S
Cd58         O59   2.433       .  S
Cd58         O62   2.522       .  S
Cd58         O60   2.422       .  S
C61          O65   1.264       .  A
C61         C673   1.489       .  S
O66          C69   1.266       .  A
O66         Cd71   2.459       .  S
C67          O76   1.266       .  A
C67          O72   1.265       .  A
C67         C593   1.474       .  S
O68          C74   1.271       .  A
O68         Cd71   2.535       .  S
C69          O77   1.266       .  A
C69         C513   1.477       .  S
C70          O75   1.270       .  A
C70          O73   1.265       .  A
C70         C553   1.497       .  S
Cd71         O78   2.437       .  S
Cd71         O77   2.443       .  S
Cd71         O76   2.438       .  S
Cd71         O72   2.469       .  S
Cd71         O75   2.522       .  S
Cd71         O73   2.484       .  S
C74          O78   1.262       .  A
C74         C533   1.491       .  S
O79          C82   1.268       .  A
O79         Cd84   2.474       .  S
C80          O89   1.264       .  A
C80          O85   1.268       .  A
C80         C473   1.475       .  S
O81          C87   1.271       .  A
O81         Cd84   2.516   1_556  S
C82          O90   1.266       .  A
C82         C493   1.478       .  S
C83          O88   1.271       .  A
C83          O86   1.264       .  A
C83         C733   1.483       .  S
Cd84         O91   2.432   1_554  S
Cd84         O90   2.436       .  S
Cd84         O89   2.412       .  S
Cd84         O85   2.465       .  S
Cd84         O88   2.506       .  S
Cd84         O86   2.423       .  S
C87          O91   1.263       .  A
C87         C753   1.488       .  S
O92          C95   1.267       .  A
O92         Cd97   2.477       .  S
C93         O102   1.267       .  A
C93          O98   1.266       .  A
C93         C502   1.477       .  S
O94         C100   1.272       .  A
O94         Cd97   2.522       .  S
C95         O103   1.266       .  A
C95         C462   1.476       .  S
C96         O101   1.272       .  A
C96          O99   1.262       .  A
C96         C562   1.493       .  S
Cd97        O104   2.449       .  S
Cd97        O103   2.431       .  S
Cd97        O102   2.474       .  S
Cd97         O98   2.433       .  S
Cd97        O101   2.530   1_556  S
Cd97         O99   2.445   1_556  S
C100        O104   1.265       .  A
C100        C542   1.493       .  S
O105        C108   1.266       .  A
O105       Cd110   2.448       .  S
C106        O115   1.266       .  A
C106        O111   1.267       .  A
C106        C482   1.465       .  S
O107        C113   1.271       .  A
O107       Cd110   2.504       .  S
C108        O116   1.265       .  A
C108        C433   1.475       .  S
C109        O114   1.272       .  A
C109        O112   1.263       .  A
C109        C393   1.484       .  S
Cd110       O117   2.430       .  S
Cd110       O116   2.441       .  S
Cd110       O115   2.417       .  S
Cd110       O111   2.467       .  S
Cd110       O114   2.519   1_554  S
Cd110       O112   2.414   1_554  S
C113        O117   1.263       .  A
C113        C413   1.484       .  S
O118        C121   1.268       .  A
O118       Cd123   2.480       .  S
C119        O128   1.266   1_556  A
C119        O124   1.269       .  A
C119        C613   1.482       .  S
O120        C126   1.272       .  A
O120       Cd123   2.513   1_556  S
C121        O129   1.264   1_554  A
C121        C442   1.480       .  S
C122        O127   1.270       .  A
C122        O125   1.265       .  A
C122        C362   1.488       .  S
Cd123       O130   2.405   1_554  S
Cd123       O129   2.431   1_554  S
Cd123       O128   2.426       .  S
Cd123       O124   2.491   1_554  S
Cd123       O127   2.502       .  S
Cd123       O125   2.451       .  S
C126        O130   1.264       .  A
C126        C373   1.486       .  S
O131        C134   1.267       .  A
O131       Cd136   2.464       .  S
C132        O141   1.266       .  A
C132        O137   1.269       .  A
C132        C522   1.473       .  S
O133        C139   1.271       .  A
O133       Cd136   2.532       .  S
C134        O142   1.266       .  A
C134        C342   1.479       .  S
C135        O140   1.272       .  A
C135        O138   1.266       .  A
C135        C302   1.490       .  S
Cd136       O143   2.415       .  S
Cd136       O142   2.437       .  S
Cd136       O141   2.425       .  S
Cd136       O137   2.460       .  S
Cd136       O140   2.503       .  S
Cd136       O138   2.449       .  S
C139        O143   1.261       .  A
C139        C313   1.486       .  S
O144        C147   1.267       .  A
O144       Cd149   2.465       .  S
C145        O154   1.265       .  A
C145        O150   1.266       .  A
C145        C722   1.473       .  S
O146        C152   1.262       .  A
O146       Cd149   2.418       .  S
C147        O155   1.267       .  A
C147        C333   1.473       .  S
C148        O153   1.270       .  A
C148        O151   1.265       .  A
C148        C402   1.489       .  S
Cd149       O156   2.501       .  S
Cd149       O155   2.433       .  S
Cd149       O154   2.452       .  S
Cd149       O150   2.446       .  S
Cd149       O153   2.512       .  S
Cd149       O151   2.446       .  S
C152        O156   1.271       .  A
C152        C422   1.483       .  S
O157        C160   1.269       .  A
O157       Cd162   2.442       .  S
C158        O167   1.262       .  A
C158        O163   1.265       .  A
C158        C573   1.470       .  S
O159        C165   1.270       .  A
O159       Cd162   2.525       .  S
C160        O168   1.269       .  A
C160        C282   1.472       .  S
C161        O166   1.271       .  A
C161        O164   1.262       .  A
C161        C242   1.484       .  S
Cd162       O169   2.425       .  S
Cd162       O168   2.417       .  S
Cd162       O167   2.417       .  S
Cd162       O163   2.461       .  S
Cd162       O166   2.503       .  S
Cd162       O164   2.420       .  S
C165        O169   1.261       .  A
C165        C253   1.481       .  S
O170        C173   1.269       .  A
O170       Cd175   2.460       .  S
C171        O180   1.264       .  A
C171        O176   1.268       .  A
C171        C782   1.475       .  S
O172        C178   1.271       .  A
O172       Cd175   2.516       .  S
C173        O181   1.268       .  A
C173        C273   1.478       .  S
C174        O179   1.271       .  A
C174        O177   1.264       .  A
C174        C353   1.489       .  S
Cd175       O182   2.436       .  S
Cd175       O181   2.424       .  S
Cd175       O180   2.413       .  S
Cd175       O176   2.482       .  S
Cd175       O179   2.508       .  S
Cd175       O177   2.447       .  S
C178        O182   1.264       .  A
C178        C382   1.489       .  S
O183        C186   1.267   1_556  A
O183       Cd188   2.468   1_556  S
C184        O193   1.265       .  A
C184        O189   1.268       .  A
C184        C642   1.476       .  S
O185        C191   1.270       .  A
O185       Cd188   2.508       .  S
C186        O194   1.266       .  A
C186        C213   1.476       .  S
C187        O192   1.271       .  A
C187        O190   1.263       .  A
C187        C233   1.487       .  S
Cd188       O195   2.433       .  S
Cd188       O194   2.429       .  S
Cd188       O193   2.411       .  S
Cd188       O189   2.464       .  S
Cd188       O192   2.517   1_554  S
Cd188       O190   2.425   1_554  S
C191        O195   1.264       .  A
C191        C262   1.484       .  S
O196        C199   1.268       .  A
O196       Cd201   2.471       .  S
C197        O206   1.266       .  A
C197        O202   1.268       .  A
C197        C453   1.480       .  S
O198        C204   1.270       .  A
O198       Cd201   2.509       .  S
C199        O207   1.265       .  A
C199        C222   1.480       .  S
C200        O205   1.270       .  A
C200        O203   1.263       .  A
C200        C293   1.486       .  S
Cd201       O208   2.448       .  S
Cd201       O207   2.436       .  S
Cd201       O206   2.439       .  S
Cd201       O202   2.471       .  S
Cd201       O205   2.504   1_556  S
Cd201       O203   2.441   1_556  S
C204        O208   1.265       .  A
C204        C322   1.488       .  S
C209        C210   1.406       .  A
C209        C214   1.400       .  A
C209        H219   1.083       .  S
C210        C215   1.483       .  S
C210        C211   1.407   1_556  A
C211        C212   1.393       .  A
C211        F216   1.358       .  S
C212        C213   1.403       .  A
C212        H217   1.083       .  S
C213        C214   1.408   1_554  A
C214        F218   1.357       .  S
C215        C220   1.407       .  A
C215        C224   1.404       .  A
C220        C221   1.400       .  A
C220        F225   1.357   1_556  S
C221        C222   1.406       .  A
C221        H226   1.083       .  S
C222        C223   1.408       .  A
C223        C224   1.395       .  A
C223        F227   1.358       .  S
C224        H228   1.083       .  S
C229        C230   1.402       .  A
C229        C234   1.395       .  A
C229        H239   1.083       .  S
C230        C235   1.488       .  S
C230        C231   1.411       .  A
C231        C232   1.404       .  A
C231        F236   1.357       .  S
C232        C233   1.406       .  A
C232        H237   1.083       .  S
C233        C234   1.411       .  A
C234        F238   1.357       .  S
C235        C240   1.411       .  A
C235        C244   1.402       .  A
C240        C241   1.401       .  A
C240        F245   1.357       .  S
C241        C242   1.404       .  A
C241        H246   1.083       .  S
C242        C243   1.412       .  A
C243        C244   1.397       .  A
C243        F247   1.358       .  S
C244        H248   1.083       .  S
C249        C250   1.410       .  A
C249        C254   1.401       .  A
C249        H259   1.084       .  S
C250        C255   1.492       .  S
C250        C251   1.407       .  A
C251        C252   1.399       .  A
C251        F256   1.357       .  S
C252        C253   1.407       .  A
C252        H257   1.084       .  S
C253        C254   1.405       .  A
C254        F258   1.357       .  S
C255        C260   1.406       .  A
C255        C264   1.410       .  A
C260        C261   1.396       .  A
C260        F265   1.357       .  S
C261        C262   1.405       .  A
C261        H266   1.084       .  S
C262        C263   1.408       .  A
C263        C264   1.405       .  A
C263        F267   1.357       .  S
C264        H268   1.083       .  S
C269        C270   1.404       .  A
C269        C274   1.398   1_455  A
C269        H279   1.083       .  S
C270        C275   1.479       .  S
C270        C271   1.406       .  A
C271        C272   1.394   1_455  A
C271        F276   1.358       .  S
C272        C273   1.405       .  A
C272        H277   1.083       .  S
C273        C274   1.409       .  A
C274        F278   1.357       .  S
C275        C280   1.407       .  A
C275        C284   1.404       .  A
C280        C281   1.397       .  A
C280        F285   1.357       .  S
C281        C282   1.404       .  A
C281        H286   1.083       .  S
C282        C283   1.406       .  A
C283        C284   1.394       .  A
C283        F287   1.358       .  S
C284        H288   1.083       .  S
C289        C290   1.406       .  A
C289        C294   1.402       .  A
C289        H299   1.083       .  S
C290        C295   1.488       .  S
C290        C291   1.406       .  A
C291        C292   1.399       .  A
C291        F296   1.358       .  S
C292        C293   1.408       .  A
C292        H297   1.083       .  S
C293        C294   1.408       .  A
C294        F298   1.357       .  S
C295        C300   1.405       .  A
C295        C304   1.406       .  A
C300        C301   1.399       .  A
C300        F305   1.358       .  S
C301        C302   1.408       .  A
C301        H306   1.083       .  S
C302        C303   1.409       .  A
C303        C304   1.404       .  A
C303        F307   1.357       .  S
C304        H308   1.083       .  S
C309        C310   1.407       .  A
C309        C314   1.404       .  A
C309        H319   1.083       .  S
C310        C315   1.487       .  S
C310        C311   1.405       .  A
C311        C312   1.397       .  A
C311        F316   1.358       .  S
C312        C313   1.408       .  A
C312        H317   1.083       .  S
C313        C314   1.408       .  A
C314        F318   1.357       .  S
C315        C320   1.409       .  A
C315        C324   1.402       .  A
C320        C321   1.404       .  A
C320        F325   1.358       .  S
C321        C322   1.407       .  A
C321        H326   1.083       .  S
C322        C323   1.411       .  A
C323        C324   1.398       .  A
C323        F327   1.357       .  S
C324        H328   1.083       .  S
C329        C330   1.405       .  A
C329        C334   1.394   1_455  A
C329        H339   1.083       .  S
C330        C335   1.484       .  S
C330        C331   1.408   1_455  A
C331        C332   1.400       .  A
C331        F336   1.357   1_655  S
C332        C333   1.405       .  A
C332        H337   1.084       .  S
C333        C334   1.404       .  A
C334        F338   1.357       .  S
C335        C340   1.408       .  A
C335        C344   1.404       .  A
C340        C341   1.400       .  A
C340        F345   1.357       .  S
C341        C342   1.406       .  A
C341        H346   1.083       .  S
C342        C343   1.407       .  A
C343        C344   1.394       .  A
C343        F347   1.357       .  S
C344        H348   1.083       .  S
C349        C350   1.408       .  A
C349        C354   1.402       .  A
C349        H359   1.082       .  S
C350        C355   1.496       .  S
C350        C351   1.409       .  A
C351        C352   1.401       .  A
C351        F356   1.358       .  S
C352        C353   1.408       .  A
C352        H357   1.083       .  S
C353        C354   1.407       .  A
C354        F358   1.357       .  S
C355        C360   1.409       .  A
C355        C364   1.409       .  A
C360        C361   1.399       .  A
C360        F365   1.357       .  S
C361        C362   1.406       .  A
C361        H366   1.083       .  S
C362        C363   1.408       .  A
C363        C364   1.404       .  A
C363        F367   1.357       .  S
C364        H368   1.083       .  S
C369        C370   1.402       .  A
C369        C374   1.396       .  A
C369        H379   1.083       .  S
C370        C375   1.493       .  S
C370        C371   1.412       .  A
C371        C372   1.404       .  A
C371        F376   1.357       .  S
C372        C373   1.405       .  A
C372        H377   1.083       .  S
C373        C374   1.411       .  A
C374        F378   1.357       .  S
C375        C380   1.406       .  A
C375        C384   1.410       .  A
C380        C381   1.397       .  A
C380        F385   1.357       .  S
C381        C382   1.407       .  A
C381        H386   1.083       .  S
C382        C383   1.408       .  A
C383        C384   1.405       .  A
C383        F387   1.357       .  S
C384        H388   1.083       .  S
C389        C390   1.409       .  A
C389        C394   1.405       .  A
C389        H399   1.083       .  S
C390        C395   1.490       .  S
C390        C391   1.405       .  A
C391        C392   1.396       .  A
C391        F396   1.357       .  S
C392        C393   1.406       .  A
C392        H397   1.083       .  S
C393        C394   1.407       .  A
C394        F398   1.357       .  S
C395        C400   1.405       .  A
C395        C404   1.408       .  A
C400        C401   1.398       .  A
C400        F405   1.357       .  S
C401        C402   1.407       .  A
C401        H406   1.083       .  S
C402        C403   1.409       .  A
C403        C404   1.404       .  A
C403        F407   1.357       .  S
C404        H408   1.083       .  S
C409        C410   1.402       .  A
C409        C414   1.395       .  A
C409        H419   1.084       .  S
C410        C415   1.485       .  S
C410        C411   1.409       .  A
C411        C412   1.402       .  A
C411        F416   1.357       .  S
C412        C413   1.406       .  A
C412        H417   1.083       .  S
C413        C414   1.410       .  A
C414        F418   1.357       .  S
C415        C420   1.405       .  A
C415        C424   1.407       .  A
C420        C421   1.396       .  A
C420        F425   1.358       .  S
C421        C422   1.408       .  A
C421        H426   1.083       .  S
C422        C423   1.406       .  A
C423        C424   1.401       .  A
C423        F427   1.357       .  S
C424        H428   1.083       .  S
C429        C430   1.404       .  A
C429        C434   1.396       .  A
C429        H439   1.083       .  S
C430        C435   1.480       .  S
C430        C431   1.406       .  A
C431        C432   1.396       .  A
C431        F436   1.357   1_554  S
C432        C433   1.405       .  A
C432        H437   1.083   1_554  S
C433        C434   1.407       .  A
C434        F438   1.358       .  S
C435        C440   1.405   1_554  A
C435        C444   1.405       .  A
C440        C441   1.396       .  A
C440        F445   1.358       .  S
C441        C442   1.407   1_556  A
C441        H446   1.083       .  S
C442        C443   1.407       .  A
C443        C444   1.398       .  A
C443        F447   1.357       .  S
C444        H448   1.083       .  S
C449        C450   1.404       .  A
C449        C454   1.399       .  A
C449        H459   1.086       .  S
C450        C455   1.483       .  S
C450        C451   1.407       .  A
C451        C452   1.395       .  A
C451        F456   1.358       .  S
C452        C453   1.405       .  A
C452        H457   1.086       .  S
C453        C454   1.408       .  A
C454        F458   1.357       .  S
C455        C460   1.408       .  A
C455        C464   1.404       .  A
C460        C461   1.400       .  A
C460        F465   1.358   1_556  S
C461        C462   1.405       .  A
C461        H466   1.086       .  S
C462        C463   1.406       .  A
C463        C464   1.394       .  A
C463        F467   1.357       .  S
C464        H468   1.086       .  S
C469        C470   1.403       .  A
C469        C474   1.391       .  A
C469        H479   1.083       .  S
C470        C475   1.479       .  S
C470        C471   1.406       .  A
C471        C472   1.399       .  A
C471        F476   1.357       .  S
C472        C473   1.406       .  A
C472        H477   1.083       .  S
C473        C474   1.407       .  A
C474        F478   1.358       .  S
C475        C480   1.407   1_554  A
C475        C484   1.407       .  A
C480        C481   1.391   1_556  A
C480        F485   1.358       .  S
C481        C482   1.400       .  A
C481        H486   1.084   1_554  S
C482        C483   1.404       .  A
C483        C484   1.400       .  A
C483        F487   1.357       .  S
C484        H488   1.083       .  S
C489        C490   1.403       .  A
C489        C494   1.396       .  A
C489        H499   1.083       .  S
C490        C495   1.481   1_554  S
C490        C491   1.408   1_554  A
C491        C492   1.399       .  A
C491        F496   1.358       .  S
C492        C493   1.405   1_556  A
C492        H497   1.083       .  S
C493        C494   1.407       .  A
C494        F498   1.357       .  S
C495        C500   1.404   1_556  A
C495        C504   1.406       .  A
C500        C501   1.395   1_554  A
C500        F505   1.357       .  S
C501        C502   1.405       .  A
C501        H506   1.083       .  S
C502        C503   1.407       .  A
C503        C504   1.399       .  A
C503        F507   1.358       .  S
C504        H508   1.083       .  S
C509        C510   1.402       .  A
C509        C514   1.395       .  A
C509        H519   1.084       .  S
C510        C515   1.477       .  S
C510        C511   1.405       .  A
C511        C512   1.398       .  A
C511        F516   1.357       .  S
C512        C513   1.406       .  A
C512        H517   1.084       .  S
C513        C514   1.407       .  A
C514        F518   1.357       .  S
C515        C520   1.405       .  A
C515        C524   1.404       .  A
C520        C521   1.394       .  A
C520        F525   1.358       .  S
C521        C522   1.403       .  A
C521        H526   1.084       .  S
C522        C523   1.407       .  A
C523        C524   1.399       .  A
C523        F527   1.357       .  S
C524        H528   1.084       .  S
C529        C530   1.403       .  A
C529        C534   1.399       .  A
C529        H539   1.083       .  S
C530        C535   1.492       .  S
C530        C531   1.410       .  A
C531        C532   1.405       .  A
C531        F536   1.357       .  S
C532        C533   1.406       .  A
C532        H537   1.083       .  S
C533        C534   1.413       .  A
C534        F538   1.358       .  S
C535        C540   1.410       .  A
C535        C544   1.403       .  A
C540        C541   1.406       .  A
C540        F545   1.357       .  S
C541        C542   1.407       .  A
C541        H546   1.083       .  S
C542        C543   1.412       .  A
C543        C544   1.399       .  A
C543        F547   1.357       .  S
C544        H548   1.083       .  S
C549        C550   1.409       .  A
C549        C554   1.405       .  A
C549        H559   1.083       .  S
C550        C555   1.499       .  S
C550        C551   1.408       .  A
C551        C552   1.404       .  A
C551        F556   1.357       .  S
C552        C553   1.409       .  A
C552        H557   1.083       .  S
C553        C554   1.409       .  A
C554        F558   1.357       .  S
C555        C560   1.412       .  A
C555        C564   1.405       .  A
C560        C561   1.406       .  A
C560        F565   1.357       .  S
C561        C562   1.406       .  A
C561        H566   1.083       .  S
C562        C563   1.412       .  A
C563        C564   1.400       .  A
C563        F567   1.358       .  S
C564        H568   1.083       .  S
C569        C570   1.403       .  A
C569        C574   1.395       .  A
C569        H579   1.084       .  S
C570        C575   1.472       .  S
C570        C571   1.403       .  A
C571        C572   1.391       .  A
C571        F576   1.358       .  S
C572        C573   1.404       .  A
C572        H577   1.084       .  S
C573        C574   1.407       .  A
C574        F578   1.357       .  S
C575        C580   1.403       .  A
C575        C584   1.402       .  A
C580        C581   1.393       .  A
C580        F585   1.357       .  S
C581        C582   1.404       .  A
C581        H586   1.084       .  S
C582        C583   1.409       .  A
C583        C584   1.394       .  A
C583        F587   1.358       .  S
C584        H588   1.084       .  S
C589        C590   1.404       .  A
C589        C594   1.402       .  A
C589        H599   1.084       .  S
C590        C595   1.478   1_565  S
C590        C591   1.405       .  A
C591        C592   1.391       .  A
C591        F596   1.358       .  S
C592        C593   1.401       .  A
C592        H597   1.083       .  S
C593        C594   1.410       .  A
C594        F598   1.358       .  S
C595        C600   1.406       .  A
C595        C604   1.401       .  A
C600        C601   1.403       .  A
C600        F605   1.357       .  S
C601        C602   1.409       .  A
C601        H606   1.084       .  S
C602        C603   1.407       .  A
C603        C604   1.390       .  A
C603        F607   1.357       .  S
C604        H608   1.084       .  S
C609        C610   1.406       .  A
C609        C614   1.401       .  A
C609        H619   1.083       .  S
C610        C615   1.483       .  S
C610        C611   1.405       .  A
C611        C612   1.394       .  A
C611        F616   1.358       .  S
C612        C613   1.405       .  A
C612        H617   1.083       .  S
C613        C614   1.409       .  A
C614        F618   1.357       .  S
C615        C620   1.408   1_556  A
C615        C624   1.406       .  A
C620        C621   1.397       .  A
C620        F625   1.357       .  S
C621        C622   1.402   1_554  A
C621        H626   1.084       .  S
C622        C623   1.404       .  A
C623        C624   1.396       .  A
C623        F627   1.358       .  S
C624        H628   1.083       .  S
C629        C630   1.404       .  A
C629        C634   1.400       .  A
C629        H639   1.084   1_554  S
C630        C635   1.481       .  S
C630        C631   1.407       .  A
C631        C632   1.394       .  A
C631        F636   1.358       .  S
C632        C633   1.403       .  A
C632        H637   1.084       .  S
C633        C634   1.408       .  A
C634        F638   1.357   1_554  S
C635        C640   1.407       .  A
C635        C644   1.402       .  A
C640        C641   1.400       .  A
C640        F645   1.357       .  S
C641        C642   1.406       .  A
C641        H646   1.084       .  S
C642        C643   1.407       .  A
C643        C644   1.390       .  A
C643        F647   1.358   1_554  S
C644        H648   1.084       .  S
C649        C650   1.409       .  A
C649        C654   1.405       .  A
C649        H659   1.083       .  S
C650        C655   1.493       .  S
C650        C651   1.407       .  A
C651        C652   1.397       .  A
C651        F656   1.358       .  S
C652        C653   1.408       .  A
C652        H657   1.083       .  S
C653        C654   1.408       .  A
C654        F658   1.357       .  S
C655        C660   1.407       .  A
C655        C664   1.408       .  A
C660        C661   1.399       .  A
C660        F665   1.357       .  S
C661        C662   1.408       .  A
C661        H666   1.083       .  S
C662        C663   1.408       .  A
C663        C664   1.404       .  A
C663        F667   1.357       .  S
C664        H668   1.083       .  S
C669        C670   1.402       .  A
C669        C674   1.398       .  A
C669        H679   1.083       .  S
C670        C675   1.489       .  S
C670        C671   1.409       .  A
C671        C672   1.404       .  A
C671        F676   1.357       .  S
C672        C673   1.406       .  A
C672        H677   1.083       .  S
C673        C674   1.412       .  A
C674        F678   1.357       .  S
C675        C680   1.405       .  A
C675        C684   1.408       .  A
C680        C681   1.398       .  A
C680        F685   1.357       .  S
C681        C682   1.408       .  A
C681        H686   1.083       .  S
C682        C683   1.409       .  A
C683        C684   1.404       .  A
C683        F687   1.357       .  S
C684        H688   1.083       .  S
C689        C690   1.403       .  A
C689        C694   1.395       .  A
C689        H699   1.092       .  S
C690        C695   1.480       .  S
C690        C691   1.406   1_556  A
C691        C692   1.396       .  A
C691        F696   1.357       .  S
C692        C693   1.402       .  A
C692        H697   1.104       .  S
C693        C694   1.408   1_554  A
C694        F698   1.358       .  S
C695        C700   1.405   1_556  A
C695        C704   1.404       .  A
C700        C701   1.391       .  A
C700        F705   1.357       .  S
C701        C702   1.402   1_554  A
C701        H706   1.093       .  S
C702        C703   1.409       .  A
C703        C704   1.398       .  A
C703        F707   1.358       .  S
C704        H708   1.096       .  S
C709        C710   1.404       .  A
C709        C714   1.397       .  A
C709        H719   1.083       .  S
C710        C715   1.476       .  S
C710        C711   1.403       .  A
C711        C712   1.393       .  A
C711        F716   1.358       .  S
C712        C713   1.405       .  A
C712        H717   1.083       .  S
C713        C714   1.407       .  A
C714        F718   1.357       .  S
C715        C720   1.404       .  A
C715        C724   1.404       .  A
C720        C721   1.396       .  A
C720        F725   1.357       .  S
C721        C722   1.405       .  A
C721        H726   1.083       .  S
C722        C723   1.406       .  A
C723        C724   1.395       .  A
C723        F727   1.358       .  S
C724        H728   1.083       .  S
C729        C730   1.407       .  A
C729        C734   1.401       .  A
C729        H739   1.084       .  S
C730        C735   1.483       .  S
C730        C731   1.403       .  A
C731        C732   1.397       .  A
C731        F736   1.357       .  S
C732        C733   1.408       .  A
C732        H737   1.083       .  S
C733        C734   1.407       .  A
C734        F738   1.357       .  S
C735        C740   1.404       .  A
C735        C744   1.408       .  A
C740        C741   1.393       .  A
C740        F745   1.358       .  S
C741        C742   1.404       .  A
C741        H746   1.084       .  S
C742        C743   1.405       .  A
C743        C744   1.404       .  A
C743        F747   1.357       .  S
C744        H748   1.083       .  S
C749        C750   1.402       .  A
C749        C754   1.396       .  A
C749        H759   1.083       .  S
C750        C755   1.488       .  S
C750        C751   1.410       .  A
C751        C752   1.404       .  A
C751        F756   1.357       .  S
C752        C753   1.407       .  A
C752        H757   1.083       .  S
C753        C754   1.411       .  A
C754        F758   1.357       .  S
C755        C760   1.405       .  A
C755        C764   1.408       .  A
C760        C761   1.398       .  A
C760        F765   1.357       .  S
C761        C762   1.408       .  A
C761        H766   1.083       .  S
C762        C763   1.407       .  A
C763        C764   1.401       .  A
C763        F767   1.357       .  S
C764        H768   1.083       .  S
C769        C770   1.405       .  A
C769        C774   1.396       .  A
C769        H779   1.083       .  S
C770        C775   1.486       .  S
C770        C771   1.408       .  A
C771        C772   1.400       .  A
C771        F776   1.357       .  S
C772        C773   1.406       .  A
C772        H777   1.083       .  S
C773        C774   1.408       .  A
C774        F778   1.357       .  S
C775        C780   1.407       .  A
C775        C784   1.408       .  A
C780        C781   1.393       .  A
C780        F785   1.357       .  S
C781        C782   1.403       .  A
C781        H786   1.084       .  S
C782        C783   1.406       .  A
C783        C784   1.401       .  A
C783        F787   1.358       .  S
C784        H788   1.083       .  S
C789        C790   1.402       .  A
C789        C794   1.395       .  A
C789        H799   1.083       .  S
C790        C795   1.487       .  S
C790        C791   1.410       .  A
C791        C792   1.403       .  A
C791        F796   1.357       .  S
C792        C793   1.405       .  A
C792        H797   1.083       .  S
C793        C794   1.411       .  A
C794        F798   1.357       .  S
C795        C800   1.410       .  A
C795        C804   1.402       .  A
C800        C801   1.402       .  A
C800        F805   1.357       .  S
C801        C802   1.405       .  A
C801        H806   1.083       .  S
C802        C803   1.411       .  A
C803        C804   1.395       .  A
C803        F807   1.357       .  S
C804        H808   1.083       .  S
C809        C810   1.405       .  A
C809        C814   1.400       .  A
C809        H819   1.083       .  S
C810        C815   1.480       .  S
C810        C811   1.403       .  A
C811        C812   1.397       .  A
C811        F816   1.358       .  S
C812        C813   1.409       .  A
C812        H817   1.083       .  S
C813        C814   1.408       .  A
C814        F818   1.357       .  S
C815        C820   1.407       .  A
C815        C824   1.399       .  A
C820        C821   1.403       .  A
C820        F825   1.357       .  S
C821        C822   1.406       .  A
C821        H826   1.083       .  S
C822        C823   1.411       .  A
C823        C824   1.393       .  A
C823        F827   1.358       .  S
C824        H828   1.084       .  S
C829        C830   1.405       .  A
C829        C834   1.397       .  A
C829        H839   1.083       .  S
C830        C835   1.483   1_545  S
C830        C831   1.407       .  A
C831        C832   1.395       .  A
C831        F836   1.358       .  S
C832        C833   1.405       .  A
C832        H837   1.083       .  S
C833        C834   1.407       .  A
C834        F838   1.357       .  S
C835        C840   1.408       .  A
C835        C844   1.405       .  A
C840        C841   1.397       .  A
C840        F845   1.357       .  S
C841        C842   1.404       .  A
C841        H846   1.084       .  S
C842        C843   1.407       .  A
C843        C844   1.395       .  A
C843        F847   1.358       .  S
C844        H848   1.083       .  S
