geometry optimzed in LAMMPS
_audit_creation_date              2020-11-30 
_audit_creation_method            'lammps2cif' 
_symmetry_space_group_name_H-M    'P1' 
_symmetry_Int_Tables_number       1 
_symmetry_cell_setting            triclinic 
loop_ 
_symmetry_equiv_pos_as_xyz 
  x,y,z 
_cell_length_a                    46.50573708 
_cell_length_b                    37.95996459052523 
_cell_length_c                    40.32397000804382 
_cell_angle_alpha                 89.91445481781192 
_cell_angle_beta                  90.01128664047518 
_cell_angle_gamma                 90.44364890545782 
loop_ 
_atom_site_label 
_atom_site_type_symbol 
_atom_site_fract_x 
_atom_site_fract_y 
_atom_site_fract_z 
_atom_site_charge 
O1          O  0.07765369  0.77722699  0.40570783    -0.57100
C2          C  0.14190606  0.79944944  0.34914805     0.75500
O3          O  0.06978071  0.75900980  0.29324823    -0.58300
C4          C  0.05068894  0.77286242  0.40708057     0.75500
C5          C  0.06007961  0.86121900  0.33514039     0.77900
Cd6        Cd  0.08034217  0.79009697  0.34682407     1.37500
O7          O  0.12829315  0.78253024  0.37118952    -0.57100
O8          O  0.06925857  0.85062765  0.36290724    -0.55900
C9          C  0.07557366  0.72859350  0.30429140     0.77900
O10         O  0.05862032  0.83808833  0.31251542    -0.58300
O11         O  0.12690242  0.81248577  0.32615289    -0.56700
O12         O  0.03698058  0.77605117  0.38002709    -0.56700
O13         O  0.08167428  0.72703257  0.33472804    -0.55900
O14         O  0.37199679  0.81314505  0.38162816    -0.57100
C15         C  0.45002381  0.80645573  0.41754855     0.75500
O16         O  0.43483917  0.79271356  0.30241643    -0.58300
C17         C  0.35811095  0.81749986  0.35490172     0.75500
C18         C  0.42914486  0.89591961  0.34317969     0.77900
Cd19       Cd  0.41950262  0.82120500  0.35610869     1.37500
O20         O  0.42329517  0.81197500  0.41634791    -0.57100
O21         O  0.40946186  0.88413485  0.36180628    -0.55900
C22         C  0.42300142  0.76333223  0.30924296     0.77900
O23         O  0.44527621  0.87290541  0.33023220    -0.58300
O24         O  0.46296083  0.80661373  0.38986318    -0.56700
O25         O  0.37270330  0.82484792  0.32930928    -0.56700
O26         O  0.41295113  0.76035589  0.33824177    -0.55900
C27         C  0.09290773  0.49435306  0.09761167     0.87200
C28         C  0.08766110  0.52260895  0.12371783    -0.53000
C29         C  0.10666879  0.52331944  0.14935673     0.10100
C30         C  0.12999595  0.49457252  0.14680166     0.21100
C31         C  0.12463977  0.50090997  0.08660007    -0.53800
C32         C  0.14427990  0.50057458  0.11244885     0.10200
C33         C  0.09474707  0.45943690  0.11683626    -0.53300
C34         C  0.11312578  0.45949526  0.14323423     0.10800
H35         H  0.07003370  0.54114200  0.12174830     0.15300
H36         H  0.14549867  0.49457108  0.16771330     0.01100
H37         H  0.13123031  0.50397115  0.06096276     0.15600
H38         H  0.08168113  0.43657643  0.11056507     0.15400
C39         C  0.41636992  0.52922595  0.10051329     0.87200
C40         C  0.42086541  0.50109621  0.12732818    -0.53000
C41         C  0.40075858  0.50074437  0.15182181     0.10100
C42         C  0.37776691  0.52932572  0.14807637     0.21100
C43         C  0.38484824  0.52269303  0.08834315    -0.53800
C44         C  0.36446500  0.52313590  0.11340391     0.10200
C45         C  0.41397052  0.56436121  0.11938288    -0.53300
C46         C  0.39470381  0.56420335  0.14487725     0.10800
H47         H  0.43827575  0.48218620  0.12647570     0.15300
H48         H  0.36186370  0.52922134  0.16863033     0.01100
H49         H  0.37893462  0.51980655  0.06248443     0.15600
H50         H  0.42730313  0.58724356  0.11395346     0.15400
O51         O  0.07223603  0.19209903  0.40773321    -0.57100
C52         C  0.13616177  0.20034068  0.37277483     0.75500
O53         O  0.04343025  0.14644437  0.33428922    -0.58300
C54         C  0.04834664  0.20750590  0.40976601     0.75500
C55         C  0.08306551  0.24824880  0.29462038     0.77900
Cd56       Cd  0.07852802  0.19558974  0.34771438     1.37500
O57         O  0.12026949  0.22716839  0.37078125    -0.57100
O58         O  0.09868783  0.22126937  0.29621144    -0.55900
C59         C  0.06256619  0.12476747  0.32551869     0.77900
O60         O  0.06309114  0.24955500  0.31596025    -0.58300
O61         O  0.12473135  0.17131362  0.36443560    -0.56700
O62         O  0.03780954  0.21800757  0.38247570    -0.56700
O63         O  0.08790987  0.13683040  0.32483380    -0.55900
O64         O  0.36668920  0.22465003  0.38669525    -0.57100
C65         C  0.44122642  0.24642249  0.41118366     0.75500
O66         O  0.41572906  0.17963461  0.31182946    -0.58300
C67         C  0.34945488  0.21678175  0.36357342     0.75500
C68         C  0.41235111  0.29277017  0.30869027     0.77900
Cd69       Cd  0.40949055  0.23051183  0.35137489     1.37500
O70         O  0.41442618  0.25123847  0.40873331    -0.57100
O71         O  0.39533393  0.28961904  0.33289435    -0.55900
C72         C  0.42709827  0.15955830  0.33319062     0.77900
O73         O  0.42956141  0.26739088  0.30467105    -0.58300
O74         O  0.45395112  0.23607920  0.38518497    -0.56700
O75         O  0.36027984  0.21452492  0.33491241    -0.56700
O76         O  0.43105810  0.17287477  0.36149765    -0.55900
O77         O  0.91395819  0.21066830  0.62881337    -0.57100
C78         C  0.84904350  0.20277074  0.68035525     0.75500
O79         O  0.94557310  0.16048405  0.70641186    -0.58300
C80         C  0.94055656  0.21749937  0.62709981     0.75500
C81         C  0.91343807  0.26751406  0.73322870     0.77900
Cd82       Cd  0.91036193  0.20688763  0.68924423     1.37500
O83         O  0.86594824  0.20558394  0.65587410    -0.57100
O84         O  0.90830131  0.27028211  0.70256041    -0.55900
C85         C  0.92709883  0.13591722  0.70849810     0.77900
O86         O  0.91916411  0.23676402  0.74331051    -0.58300
O87         O  0.86071636  0.20166362  0.70870300    -0.56700
O88         O  0.95347290  0.22083007  0.65461837    -0.56700
O89         O  0.90140148  0.14488155  0.70330762    -0.55900
O90         O  0.61776548  0.22600993  0.65677585    -0.57100
C91         C  0.54107686  0.24092878  0.63240803     0.75500
O92         O  0.56032130  0.17218740  0.73031226    -0.58300
C93         C  0.63324105  0.20739085  0.67561620     0.75500
C94         C  0.58004320  0.27837109  0.73563047     0.77900
Cd95       Cd  0.57404944  0.21983917  0.68983440     1.37500
O96         O  0.56787411  0.23593271  0.63190799    -0.57100
O97         O  0.59938111  0.26930055  0.71554399    -0.55900
C98         C  0.55727947  0.14872729  0.70821502     0.77900
O99         O  0.55697186  0.26036914  0.73452309    -0.58300
O100        O  0.52884820  0.23702250  0.66029931    -0.56700
O101        O  0.62075208  0.19312481  0.70015174    -0.56700
O102        O  0.56011870  0.15910484  0.67862122    -0.55900
O103        O  0.58522925  0.82487810  0.63386587    -0.57100
C104        C  0.65373980  0.81925663  0.68111883     0.75500
O105        O  0.55896152  0.86378277  0.71253978    -0.58300
C106        C  0.56241716  0.80679738  0.63154825     0.75500
C107        C  0.59273057  0.75595269  0.73778099     0.77900
Cd108      Cd  0.59320660  0.81706388  0.69351212     1.37500
O109        O  0.63605487  0.81270872  0.65801848    -0.57100
O110        O  0.60534594  0.75641838  0.71006590    -0.55900
C111        C  0.57784665  0.88764983  0.71638588     0.77900
O112        O  0.57860870  0.78339596  0.74475787    -0.58300
O113        O  0.64302484  0.82555180  0.70935446    -0.56700
O114        O  0.55342798  0.79315433  0.65836081    -0.56700
O115        O  0.60345747  0.87817172  0.71143429    -0.55900
O116        O  0.93227361  0.77840044  0.63518499    -0.57100
C117        C  0.86921521  0.81029814  0.67474725     0.75500
O118        O  0.95015551  0.75311035  0.72287282    -0.58300
C119        C  0.95914921  0.78204596  0.63181275     0.75500
C120        C  0.94701366  0.87492979  0.70470642     0.77900
Cd121      Cd  0.92890976  0.80317901  0.69055324     1.37500
O122        O  0.88481618  0.78826469  0.65980414    -0.57100
O123        O  0.94012293  0.86416988  0.67616488    -0.55900
C124        C  0.92749865  0.74673847  0.73932389     0.77900
O125        O  0.94688570  0.85189334  0.72753098    -0.58300
O126        O  0.88166888  0.82977756  0.69584735    -0.56700
O127        O  0.97266215  0.79447862  0.65654210    -0.56700
O128        O  0.90715811  0.76803517  0.73495636    -0.55900
C129        C  0.59202370  0.51698739  0.94078449     0.87200
C130        C  0.58888681  0.48560022  0.91720086    -0.53000
C131        C  0.60877551  0.48402257  0.89237829     0.10100
C132        C  0.63049411  0.51499159  0.89318732     0.21100
C133        C  0.62378313  0.51460484  0.95331770    -0.53800
C134        C  0.64420825  0.51367875  0.92822754     0.10200
C135        C  0.59265512  0.54969418  0.91846927    -0.53300
C136        C  0.61206328  0.54855840  0.89339156     0.10800
H137        H  0.57188882  0.46602740  0.92005352     0.15300
H138        H  0.64638092  0.51418130  0.87275125     0.01100
H139        H  0.62970310  0.51569927  0.97924775     0.15600
H140        H  0.57834718  0.57191313  0.92178284     0.15400
C141        C  0.91653478  0.50542764  0.93971739     0.87200
C142        C  0.91964861  0.53625278  0.91547620    -0.53000
C143        C  0.89963531  0.53721264  0.89093163     0.10100
C144        C  0.87753103  0.50677990  0.89253687     0.21100
C145        C  0.88511673  0.50861272  0.95272798    -0.53800
C146        C  0.86461191  0.50908073  0.92794606     0.10200
C147        C  0.91524244  0.47221258  0.91811422    -0.53300
C148        C  0.89583979  0.47291551  0.89262559     0.10800
H149        H  0.93657241  0.55603260  0.91762697     0.15300
H150        H  0.86135190  0.50822376  0.87240383     0.01100
H151        H  0.87924679  0.50954810  0.97870743     0.15600
H152        H  0.92959779  0.45017173  0.92211414     0.15400
C153        C  0.72409397  0.53370418  0.91204482    -0.01300
C154        C  0.73858908  0.51397800  0.93655551     0.07300
C155        C  0.72168288  0.49492955  0.95952484    -0.07300
C156        C  0.69124706  0.49484803  0.95803439     0.04700
C157        C  0.67669824  0.51411096  0.93299601    -0.14500
C158        C  0.69382507  0.53346882  0.91041246    -0.07800
C159        C  0.77114493  0.51204020  0.93759288     0.05700
C160        C  0.78780536  0.54294515  0.94177379    -0.08900
C161        C  0.81817086  0.54234276  0.94010356     0.00700
C162        C  0.83270575  0.51043382  0.93411576     0.00500
C163        C  0.81623539  0.47939682  0.93149835    -0.12500
C164        C  0.78591457  0.47993119  0.93294977     0.01000
C165        C  0.83399267  0.57488684  0.94418313     0.40300
C166        C  0.77040490  0.44732640  0.92782937     0.36900
C167        C  0.73982888  0.55367210  0.88743316     0.36700
C168        C  0.67576284  0.47345199  0.98172335     0.37400
N169        N  0.84666699  0.60096729  0.94770420    -0.43400
N170        N  0.75798820  0.42117356  0.92364708    -0.43800
N171        N  0.66349668  0.45633226  0.00091432    -0.41200
N172        N  0.75241271  0.56977578  0.86775107    -0.42600
H173        H  0.68359755  0.54877037  0.89111637     0.13500
H174        H  0.73235470  0.47965014  0.97857371     0.10000
H175        H  0.77701496  0.56778424  0.94583013     0.11100
H176        H  0.82712552  0.45462926  0.92740405     0.16900
C177        C  0.89031481  0.67605897  0.79043803    -0.01300
C178        C  0.91332823  0.65510770  0.80115548     0.07300
C179        C  0.94145284  0.66418439  0.79163471    -0.07300
C180        C  0.94688573  0.69403033  0.77185197     0.04700
C181        C  0.92379728  0.71546879  0.76138033    -0.14500
C182        C  0.89565180  0.70592553  0.77096210    -0.07800
C183        C  0.90841387  0.62477197  0.82380487     0.05700
C184        C  0.90895875  0.59030350  0.81129596    -0.08900
C185        C  0.90454948  0.56120131  0.83232539     0.00700
C186        C  0.89969502  0.56655520  0.86651031     0.00500
C187        C  0.89866067  0.60115066  0.87873206    -0.12500
C188        C  0.90284407  0.63010493  0.85775495     0.01000
C189        C  0.90661998  0.52632917  0.81842782     0.40300
C190        C  0.90215580  0.66508172  0.87174544     0.36900
C191        C  0.86098206  0.66703952  0.79886502     0.36700
C192        C  0.97632440  0.70224598  0.76332368     0.37400
N193        N  0.90840406  0.49865527  0.80665563    -0.43400
N194        N  0.90159911  0.69314728  0.88287754    -0.43800
N195        N  0.99993802  0.70882338  0.75650639    -0.41200
N196        N  0.83753569  0.65956982  0.80564117    -0.42600
H197        H  0.87754494  0.72154720  0.76282147     0.13500
H198        H  0.95922106  0.64815297  0.80007100     0.10000
H199        H  0.91311028  0.58616516  0.78512991     0.11100
H200        H  0.89532341  0.60550698  0.90501729     0.16900
C201        C  0.62280045  0.67278978  0.77673620    -0.01300
C202        C  0.60398045  0.66667648  0.80346036     0.07300
C203        C  0.58111297  0.68990297  0.80876299    -0.07300
C204        C  0.57683520  0.71908043  0.78787033     0.04700
C205        C  0.59555258  0.72520183  0.76072253    -0.14500
C206        C  0.61839393  0.70160350  0.75557919    -0.07800
C207        C  0.60725093  0.63542583  0.82539516     0.05700
C208        C  0.62720933  0.63643337  0.85153599    -0.08900
C209        C  0.63009037  0.60763789  0.87317376     0.00700
C210        C  0.61317405  0.57709394  0.86836941     0.00500
C211        C  0.59336401  0.57608874  0.84216805    -0.12500
C212        C  0.59046756  0.60478076  0.82057452     0.01000
C213        C  0.64936425  0.61060709  0.90111081     0.40300
C214        C  0.56993490  0.60240076  0.79381713     0.36900
C215        C  0.64669761  0.64963146  0.77056910     0.36700
C216        C  0.55272892  0.74168816  0.79457347     0.37400
N217        N  0.66465560  0.61292640  0.92366236    -0.43400
N218        N  0.55350853  0.60051203  0.77232446    -0.43800
N219        N  0.53337157  0.75975245  0.80004331    -0.41200
N220        N  0.66584019  0.63098805  0.76588378    -0.42600
H221        H  0.63318965  0.70587104  0.73516070     0.13500
H222        H  0.56648616  0.68509356  0.82925078     0.10000
H223        H  0.64005250  0.66002139  0.85543944     0.11100
H224        H  0.57963769  0.55309430  0.83907705     0.16900
C225        C  0.73273359  0.82023640  0.70208940    -0.01300
C226        C  0.74583448  0.81791049  0.67068873     0.07300
C227        C  0.72862225  0.81537161  0.64225734    -0.07300
C228        C  0.69855501  0.81585417  0.64466946     0.04700
C229        C  0.68534174  0.81899243  0.67620551    -0.14500
C230        C  0.70285890  0.82109078  0.70455088    -0.07800
C231        C  0.77750396  0.81771767  0.66737043     0.05700
C232        C  0.79106674  0.78686502  0.65680853    -0.08900
C233        C  0.82108035  0.78417061  0.65748409     0.00700
C234        C  0.83791185  0.81292008  0.66894301     0.00500
C235        C  0.82420290  0.84439255  0.67771940    -0.12500
C236        C  0.79430250  0.84705300  0.67684138     0.01000
C237        C  0.83368807  0.75093035  0.64828147     0.40300
C238        C  0.78127420  0.87991431  0.68643398     0.36900
C239        C  0.74945335  0.82087375  0.73229006     0.36700
C240        C  0.68212704  0.81328579  0.61436444     0.37400
N241        N  0.84371105  0.72424193  0.64092884    -0.43400
N242        N  0.77080379  0.90617755  0.69425500    -0.43800
N243        N  0.66912983  0.81114821  0.58995714    -0.41200
N244        N  0.76276028  0.82142152  0.75653832    -0.42600
H245        H  0.69323748  0.82288441  0.72898194     0.13500
H246        H  0.73875070  0.81325762  0.61811759     0.10000
H247        H  0.77810353  0.76434332  0.64937456     0.11100
H248        H  0.83685306  0.86683978  0.68600116     0.16900
C249        C  0.56218409  0.06147870  0.75384181    -0.01300
C250        C  0.55601408  0.03723490  0.72822968     0.07300
C251        C  0.54592338  0.05003152  0.69776998    -0.07300
C252        C  0.54403552  0.08623756  0.69161139     0.04700
C253        C  0.55277969  0.11072600  0.71615575    -0.14500
C254        C  0.56066692  0.09788033  0.74761787    -0.07800
C255        C  0.56116632  0.99859383  0.73137125     0.05700
C256        C  0.53813495  0.97507227  0.72640472    -0.08900
C257        C  0.54264714  0.93867290  0.72338917     0.00700
C258        C  0.57091525  0.92504971  0.72472085     0.00500
C259        C  0.59375785  0.94859193  0.73141237    -0.12500
C260        C  0.58916249  0.98490039  0.73476725     0.01000
C261        C  0.51786063  0.91640455  0.71769382     0.40300
C262        C  0.61379907  0.00767180  0.73987428     0.36900
C263        C  0.57033480  0.04961657  0.78651766     0.36700
C264        C  0.53336069  0.09734190  0.65964411     0.37400
N265        N  0.49784904  0.89872169  0.71326289    -0.43400
N266        N  0.63353061  0.02584329  0.74426699    -0.43800
N267        N  0.52477141  0.10630355  0.63407087    -0.41200
N268        N  0.57685228  0.04008437  0.81271620    -0.42600
H269        H  0.56689930  0.11620642  0.76697345     0.13500
H270        H  0.54040575  0.03157080  0.67821838     0.10000
H271        H  0.51655436  0.98538800  0.72383503     0.11100
H272        H  0.61556992  0.93881256  0.73293424     0.16900
C273        C  0.61870426  0.35195941  0.78162104    -0.01300
C274        C  0.59713079  0.36490816  0.80275683     0.07300
C275        C  0.56956877  0.34957938  0.80161218    -0.07300
C276        C  0.56327878  0.32163922  0.77998913     0.04700
C277        C  0.58496178  0.30825936  0.75898119    -0.14500
C278        C  0.61255398  0.32389046  0.76018332    -0.07800
C279        C  0.60262701  0.39472452  0.82593497     0.05700
C280        C  0.60967564  0.42808956  0.81313049    -0.08900
C281        C  0.61308652  0.45738878  0.83404871     0.00700
C282        C  0.60911787  0.45360939  0.86869920     0.00500
C283        C  0.60331959  0.41967941  0.88140296    -0.12500
C284        C  0.59998164  0.39053788  0.86050146     0.01000
C285        C  0.61969393  0.49078545  0.81869238     0.40300
C286        C  0.59395114  0.35654232  0.87516984     0.36900
C287        C  0.64743642  0.36669389  0.78183097     0.36700
C288        C  0.53426592  0.30788893  0.77957476     0.37400
N289        N  0.62543932  0.51696020  0.80543509    -0.43400
N290        N  0.58909915  0.32933100  0.88696970    -0.43800
N291        N  0.51096531  0.29697171  0.77915354    -0.41200
N292        N  0.67041516  0.37862022  0.78190983    -0.42600
H293        H  0.62956422  0.31415105  0.74435420     0.13500
H294        H  0.55278337  0.35979286  0.81750953     0.10000
H295        H  0.61184865  0.43140817  0.78653233     0.11100
H296        H  0.60107987  0.41588437  0.90793017     0.16900
C297        C  0.94496983  0.96416506  0.74624338    -0.01300
C298        C  0.95175975  0.98681585  0.71956662     0.07300
C299        C  0.96150261  0.97233272  0.68972339    -0.07300
C300        C  0.96225539  0.93576867  0.68520685     0.04700
C301        C  0.95292689  0.91291238  0.71090088    -0.14500
C302        C  0.94563493  0.92749452  0.74178806    -0.07800
C303        C  0.94566699  0.02519589  0.72068582     0.05700
C304        C  0.96841179  0.04967236  0.72013872    -0.08900
C305        C  0.96314394  0.08600347  0.71756012     0.00700
C306        C  0.93450364  0.09836669  0.71525199     0.00500
C307        C  0.91185753  0.07358543  0.71684659    -0.12500
C308        C  0.91717434  0.03745971  0.71922021     0.01000
C309        C  0.98761130  0.10958427  0.71631903     0.40300
C310        C  0.89302945  0.01330902  0.71802200     0.36900
C311        C  0.93638741  0.97810278  0.77798793     0.36700
C312        C  0.97235546  0.92251058  0.65377206     0.37400
N313        N  0.00732392  0.12835409  0.71531739    -0.43400
N314        N  0.87370439  0.99395827  0.71687403    -0.43800
N315        N  0.98055684  0.91191512  0.62862125    -0.41200
N316        N  0.92961074  0.98940991  0.80342422    -0.42600
H317        H  0.93883639  0.91036388  0.76189881     0.13500
H318        H  0.96726561  0.98968744  0.66934226     0.10000
H319        H  0.99036782  0.04026899  0.72098209     0.11100
H320        H  0.88974716  0.08226064  0.71502799     0.16900
C321        C  0.89586536  0.35946084  0.76386635    -0.01300
C322        C  0.90437158  0.35818473  0.79736385     0.07300
C323        C  0.91630672  0.32699281  0.80984430    -0.07300
C324        C  0.91994208  0.29734439  0.78959204     0.04700
C325        C  0.91158795  0.29854550  0.75582248    -0.14500
C326        C  0.89965587  0.32996980  0.74346658    -0.07800
C327        C  0.90196857  0.38928986  0.81969110     0.05700
C328        C  0.87484037  0.40294961  0.82762173    -0.08900
C329        C  0.87195555  0.43103275  0.85011405     0.00700
C330        C  0.89662631  0.44534492  0.86591615     0.00500
C331        C  0.92377479  0.43247115  0.85642348    -0.12500
C332        C  0.92660672  0.40501808  0.83367372     0.01000
C333        C  0.84339821  0.44396948  0.85613184     0.40300
C334        C  0.95516214  0.39385271  0.82459542     0.36900
C335        C  0.88356697  0.39090209  0.74974093     0.36700
C336        C  0.93243591  0.26634514  0.80434216     0.37400
N337        N  0.82014925  0.45396861  0.85955449    -0.43400
N338        N  0.97803478  0.38496768  0.81724473    -0.43800
N339        N  0.94243065  0.24157737  0.81634571    -0.41200
N340        N  0.87359017  0.41607652  0.73850713    -0.42600
H341        H  0.89287174  0.33149205  0.71779159     0.13500
H342        H  0.92284059  0.32585404  0.83563918     0.10000
H343        H  0.85579828  0.39131846  0.81645824     0.11100
H344        H  0.94315315  0.44405736  0.86668384     0.16900
C345        C  0.77030387  0.20684557  0.70298266    -0.01300
C346        C  0.75667793  0.20016462  0.67240520     0.07300
C347        C  0.77337803  0.19472662  0.64402909    -0.07300
C348        C  0.80345734  0.19523129  0.64579909     0.04700
C349        C  0.81729366  0.20143160  0.67659191    -0.14500
C350        C  0.80029215  0.20711284  0.70489599    -0.07800
C351        C  0.72497088  0.19921701  0.66967327     0.05700
C352        C  0.71107278  0.22615083  0.65230340    -0.08900
C353        C  0.68105257  0.22844987  0.65237267     0.00700
C354        C  0.66452376  0.20343250  0.67037623     0.00500
C355        C  0.67857022  0.17537931  0.68615702    -0.12500
C356        C  0.70851701  0.17293721  0.68566125     0.01000
C357        C  0.66810060  0.25779020  0.63526578     0.40300
C358        C  0.72198275  0.14341658  0.70190331     0.36900
C359        C  0.75393648  0.21453201  0.73252130     0.36700
C360        C  0.81924890  0.18857553  0.61569180     0.37400
N361        N  0.65770124  0.28126507  0.62153158    -0.43400
N362        N  0.73286546  0.11976911  0.71482599    -0.43800
N363        N  0.83160640  0.18316356  0.59135033    -0.41200
N364        N  0.74076863  0.22074120  0.75612133    -0.42600
H365        H  0.81041501  0.21240851  0.72861956     0.13500
H366        H  0.76282816  0.18973585  0.62048253     0.10000
H367        H  0.72378622  0.24615226  0.63968225     0.11100
H368        H  0.66616975  0.15559247  0.69945593     0.16900
C369        C  0.49206170  0.22831317  0.48231814    -0.01300
C370        C  0.48284737  0.25256576  0.50647405     0.07300
C371        C  0.46079786  0.27612554  0.49867746    -0.07300
C372        C  0.44754563  0.27541334  0.46743476     0.04700
C373        C  0.45647651  0.25081548  0.44327013    -0.14500
C374        C  0.47905168  0.22779827  0.45096408    -0.07800
C375        C  0.49614711  0.25354748  0.53994656     0.05700
C376        C  0.52437688  0.26618144  0.54314779    -0.08900
C377        C  0.53887238  0.26419693  0.57351104     0.00700
C378        C  0.52505357  0.24909814  0.60149509     0.00500
C379        C  0.49615135  0.23837927  0.59865573    -0.12500
C380        C  0.48171775  0.24033185  0.56814795     0.01000
C381        C  0.56793642  0.27779854  0.57508686     0.40300
C382        C  0.45270442  0.22676163  0.56585410     0.36900
C383        C  0.51400462  0.20275090  0.48973584     0.36700
C384        C  0.42530456  0.30073448  0.46063109     0.37400
N385        N  0.59121455  0.28872210  0.57634314    -0.43400
N386        N  0.42947596  0.21580617  0.56390712    -0.43800
N387        N  0.40753994  0.32112489  0.45518425    -0.41200
N388        N  0.53149670  0.18224193  0.49593045    -0.42600
H389        H  0.48584281  0.20845226  0.43287689     0.13500
H390        H  0.45388998  0.29503270  0.51711296     0.10000
H391        H  0.53534155  0.27688343  0.52158209     0.11100
H392        H  0.48525332  0.22676201  0.61983260     0.16900
C393        C  0.99883114  0.23866339  0.56381733    -0.01300
C394        C  0.98718449  0.22428714  0.53446356     0.07300
C395        C  0.95968298  0.20903795  0.53533176    -0.07300
C396        C  0.94389991  0.20730718  0.56484455     0.04700
C397        C  0.95579315  0.22072493  0.59469551    -0.14500
C398        C  0.98324123  0.23659744  0.59359639    -0.07800
C399        C  0.00382591  0.22268089  0.50297250     0.05700
C400        C  0.02845240  0.20172794  0.50178249    -0.08900
C401        C  0.04337764  0.19663256  0.47201832     0.00700
C402        C  0.03364147  0.21278706  0.44230265     0.00500
C403        C  0.00916061  0.23431555  0.44380406    -0.12500
C404        C  0.99431594  0.23933812  0.47372477     0.01000
C405        C  0.06809193  0.17383253  0.47293457     0.40300
C406        C  0.96952057  0.26198298  0.47401217     0.36900
C407        C  0.02645914  0.25626607  0.56374310     0.36700
C408        C  0.91601589  0.19039421  0.56361122     0.37400
N409        N  0.08786862  0.15552687  0.47379269    -0.43400
N410        N  0.94964762  0.28013400  0.47446826    -0.43800
N411        N  0.89368326  0.17681210  0.56239806    -0.41200
N412        N  0.04852658  0.27056545  0.56353428    -0.42600
H413        H  0.99258283  0.24746111  0.61602938     0.13500
H414        H  0.95073145  0.19771889  0.51286420     0.10000
H415        H  0.03564153  0.18853703  0.52414989     0.11100
H416        H  0.00148408  0.24723635  0.42154078     0.16900
C417        C  0.27743655  0.21983553  0.40713201    -0.01300
C418        C  0.25885821  0.20542141  0.38312003     0.07300
C419        C  0.27011583  0.19375421  0.35287013    -0.07300
C420        C  0.29948593  0.19661899  0.34600056     0.04700
C421        C  0.31829962  0.21146375  0.36989126    -0.14500
C422        C  0.30690660  0.22256543  0.40047356    -0.07800
C423        C  0.22733804  0.20377833  0.38782973     0.05700
C424        C  0.21183315  0.23526117  0.38855029    -0.08900
C425        C  0.18179879  0.23494529  0.38628289     0.00700
C426        C  0.16690682  0.20248215  0.38247218     0.00500
C427        C  0.18249632  0.17094493  0.38470389    -0.12500
C428        C  0.21243017  0.17139207  0.38751773     0.01000
C429        C  0.16724788  0.26840850  0.38666119     0.40300
C430        C  0.22752484  0.13834496  0.38939969     0.36900
C431        C  0.26673397  0.23175250  0.43875666     0.36700
C432        C  0.30940859  0.18396474  0.31427094     0.37400
N433        N  0.15572669  0.29532017  0.38717754    -0.43400
N434        N  0.23966674  0.11191054  0.39111981    -0.43800
N435        N  0.31717109  0.17378856  0.28877945    -0.41200
N436        N  0.25809023  0.24129392  0.46408147    -0.42600
H437        H  0.32094898  0.23399721  0.41910510     0.13500
H438        H  0.25572295  0.18284624  0.33428501     0.10000
H439        H  0.22333263  0.26022794  0.38929209     0.11100
H440        H  0.17144425  0.14575229  0.38296019     0.16900
C441        C  0.46367620  0.50666203  0.02362016    -0.01300
C442        C  0.49102446  0.52122947  0.03199730     0.07300
C443        C  0.49318440  0.53893835  0.06242716    -0.07300
C444        C  0.46995378  0.54085527  0.08463257     0.04700
C445        C  0.44195382  0.52849169  0.07553446    -0.14500
C446        C  0.43962207  0.51110254  0.04473061    -0.07800
C447        C  0.51731426  0.51900640  0.00951377     0.05700
C448        C  0.51431401  0.52579090  0.97545822    -0.08900
C449        C  0.53768490  0.52385601  0.95347329     0.00700
C450        C  0.56619849  0.51797764  0.96529404     0.00500
C451        C  0.56936458  0.51150308  0.99950339    -0.12500
C452        C  0.54546627  0.51122785  0.02125538     0.01000
C453        C  0.53131302  0.52754205  0.91853230     0.40300
C454        C  0.55058604  0.50145255  0.05533497     0.36900
C455        C  0.45988237  0.48514760  0.99442899     0.36700
C456        C  0.47633291  0.55459274  0.11722639     0.37400
N457        N  0.52616760  0.53033945  0.89056942    -0.43400
N458        N  0.55489409  0.49372645  0.08265130    -0.43800
N459        N  0.48166892  0.56569959  0.14324091    -0.41200
N460        N  0.45684582  0.46786388  0.97104916    -0.42600
H461        H  0.41935811  0.49911956  0.03765020     0.13500
H462        H  0.51347421  0.55101351  0.06943561     0.10000
H463        H  0.49339140  0.53263993  0.96565340     0.11100
H464        H  0.59032296  0.50539771  0.00947131     0.16900
C465        C  0.38659313  0.37911907  0.27159584    -0.01300
C466        C  0.40526708  0.38410861  0.24447513     0.07300
C467        C  0.42682245  0.35921102  0.23859001    -0.07300
C468        C  0.42970100  0.32929958  0.25887933     0.04700
C469        C  0.41116038  0.32429902  0.28640002    -0.14500
C470        C  0.38980275  0.34972146  0.29232739    -0.07800
C471        C  0.40276539  0.41509249  0.22193229     0.05700
C472        C  0.42440714  0.44105685  0.22242865    -0.08900
C473        C  0.42347716  0.46994658  0.20073726     0.00700
C474        C  0.40057588  0.47321735  0.17801815     0.00500
C475        C  0.37855002  0.44775028  0.17802224    -0.12500
C476        C  0.37958255  0.41867695  0.19956002     0.01000
C477        C  0.44609416  0.49612799  0.20241864     0.40300
C478        C  0.35733332  0.39205839  0.19729935     0.36900
C479        C  0.36388172  0.40376705  0.27856413     0.36700
C480        C  0.45142608  0.30399787  0.25019711     0.37400
N481        N  0.46414666  0.51720983  0.20390981    -0.43400
N482        N  0.33955667  0.37064099  0.19553777    -0.43800
N483        N  0.46873493  0.28366304  0.24295904    -0.41200
N484        N  0.34552824  0.42336872  0.28392809    -0.42600
H485        H  0.37514971  0.34647435  0.31302638     0.13500
H486        H  0.44113380  0.36285703  0.21761375     0.10000
H487        H  0.44216717  0.43859274  0.23968697     0.11100
H488        H  0.36110967  0.44987490  0.16028123     0.16900
C489        C  0.96433375  0.51298365  0.01894066    -0.01300
C490        C  0.99221780  0.50464677  0.00681358     0.07300
C491        C  0.99474378  0.49724867  0.97287360    -0.07300
C492        C  0.97103396  0.49878757  0.95135809     0.04700
C493        C  0.94270461  0.50479753  0.96368318    -0.14500
C494        C  0.94007991  0.51210233  0.99777315    -0.06600
C495        C  0.01863105  0.50220492  0.02894582     0.05700
C496        C  0.01636752  0.48480294  0.05952307    -0.08900
C497        C  0.03953052  0.48306933  0.08172513     0.00700
C498        C  0.06764855  0.49477239  0.07231050     0.00500
C499        C  0.07017270  0.51164753  0.04124548    -0.12500
C500        C  0.04604579  0.51636774  0.02026062     0.01000
C501        C  0.03287348  0.47098023  0.11488403     0.40300
C502        C  0.04970860  0.53809890  0.99113656     0.36900
C503        C  0.95995748  0.52424444  0.05272473     0.36700
C504        C  0.97695949  0.49508524  0.91633983     0.37400
N505        N  0.02739596  0.46154336  0.14146625    -0.43400
N506        N  0.05258001  0.55572338  0.96790845    -0.43800
N507        N  0.98197777  0.49259379  0.88833411    -0.41200
N508        N  0.95635127  0.53328842  0.07979096    -0.42600
H509        H  0.91930989  0.51852095  0.00803420     0.13500
H510        H  0.01554601  0.49032037  0.96280323     0.10000
H511        H  0.99595324  0.47321404  0.06679874     0.11100
H512        H  0.09056856  0.52320319  0.03401842     0.16900
C513        C  0.07348805  0.33351937  0.24594677    -0.01300
C514        C  0.09974405  0.33665171  0.22858534     0.07300
C515        C  0.11991394  0.30955344  0.23152415    -0.07300
C516        C  0.11460094  0.28003857  0.25175104     0.04700
C517        C  0.08862001  0.27733658  0.27019046    -0.14500
C518        C  0.06826989  0.30434825  0.26666770    -0.07800
C519        C  0.10629968  0.36775412  0.20692472     0.05700
C520        C  0.10844792  0.40149551  0.22102980    -0.08900
C521        C  0.11231163  0.43168255  0.20117668     0.00700
C522        C  0.11442220  0.42842475  0.16627477     0.00500
C523        C  0.11373217  0.39432675  0.15250560    -0.12500
C524        C  0.10948120  0.36432137  0.17231856     0.01000
C525        C  0.11205632  0.46549348  0.21742724     0.40300
C526        C  0.10659081  0.33048836  0.15631421     0.36900
C527        C  0.05119766  0.35944743  0.24203207     0.36700
C528        C  0.13661373  0.25345550  0.25334418     0.37400
N529        N  0.11183007  0.49220005  0.23121802    -0.43400
N530        N  0.10410074  0.30336333  0.14353086    -0.43800
N531        N  0.15429208  0.23218518  0.25441480    -0.41200
N532        N  0.03332153  0.38017613  0.23861211    -0.42600
H533        H  0.04813043  0.30274843  0.28015372     0.13500
H534        H  0.14004756  0.31160100  0.21804479     0.10000
H535        H  0.10619656  0.40433667  0.24766224     0.11100
H536        H  0.11544162  0.39115655  0.12585911     0.16900
C537        C  0.22460738  0.48045322  0.12150212    -0.01300
C538        C  0.23818194  0.50955527  0.10586979     0.07300
C539        C  0.22044804  0.53520726  0.09120279    -0.07300
C540        C  0.19009657  0.53237473  0.09217299     0.04700
C541        C  0.17656374  0.50359124  0.10836991    -0.14500
C542        C  0.19430466  0.47792167  0.12291090    -0.07800
C543        C  0.27060567  0.51430567  0.10597359     0.05700
C544        C  0.28837240  0.49014926  0.08927799    -0.08900
C545        C  0.31874312  0.49302540  0.09032033     0.00700
C546        C  0.33222825  0.52036390  0.10859713     0.00500
C547        C  0.31440628  0.54467410  0.12491746    -0.12500
C548        C  0.28414482  0.54204945  0.12358282     0.01000
C549        C  0.33556115  0.46656642  0.07376559     0.40300
C550        C  0.26741960  0.56757767  0.14155030     0.36900
C551        C  0.24138089  0.45333002  0.13727099     0.36700
C552        C  0.17329010  0.56040397  0.07800473     0.37400
N553        N  0.34911024  0.44538735  0.06048838    -0.43400
N554        N  0.25402984  0.58809081  0.15592750    -0.43800
N555        N  0.15973695  0.58289481  0.06675357    -0.41200
N556        N  0.25489081  0.43157823  0.14982283    -0.42600
H557        H  0.18441224  0.45572390  0.13559759     0.13500
H558        H  0.23037531  0.55783094  0.07925867     0.10000
H559        H  0.27846080  0.46864703  0.07566950     0.11100
H560        H  0.32420402  0.56587634  0.13906162     0.16900
C561        C  0.50885914  0.78147875  0.47843428    -0.01300
C562        C  0.49748266  0.79290047  0.50897058     0.07300
C563        C  0.46973457  0.80701877  0.50968511    -0.07300
C564        C  0.45364639  0.81096897  0.48053105     0.04700
C565        C  0.46538091  0.80067107  0.44957116    -0.14500
C566        C  0.49289363  0.78551629  0.44915195    -0.07800
C567        C  0.51507258  0.79371528  0.53984469     0.05700
C568        C  0.53962953  0.81532087  0.54068399    -0.08900
C569        C  0.55572419  0.81942748  0.56980017     0.00700
C570        C  0.54699568  0.80204471  0.59937001     0.00500
C571        C  0.52268598  0.77973675  0.59817312    -0.12500
C572        C  0.50688281  0.77533256  0.56879602     0.01000
C573        C  0.58086027  0.84195940  0.56823963     0.40300
C574        C  0.48273116  0.75122362  0.56876157     0.36900
C575        C  0.53683868  0.76538819  0.47663213     0.36700
C576        C  0.42583343  0.82737980  0.48326436     0.37400
N577        N  0.60103373  0.85993880  0.56671142    -0.43400
N578        N  0.46350485  0.73168802  0.56877113    -0.43800
N579        N  0.40359923  0.84062641  0.48566795    -0.41200
N580        N  0.55924404  0.75241738  0.47528996    -0.42600
H581        H  0.50210772  0.77700270  0.42583440     0.13500
H582        H  0.46100434  0.81620214  0.53304141     0.10000
H583        H  0.54599284  0.82958579  0.51849693     0.11100
H584        H  0.51589740  0.76564605  0.62026802     0.16900
C585        C  0.41045532  0.99298407  0.34089282    -0.01300
C586        C  0.43508127  0.00856064  0.32648394     0.07300
C587        C  0.45837015  0.98704032  0.31800513    -0.07300
C588        C  0.45715382  0.95035581  0.32309299     0.04700
C589        C  0.43218776  0.93458603  0.33696590    -0.14500
C590        C  0.40913688  0.95650041  0.34579425    -0.07800
C591        C  0.43730421  0.04754689  0.32263005     0.05700
C592        C  0.45534874  0.06638257  0.34416647    -0.08900
C593        C  0.45386479  0.10318688  0.34627280     0.00700
C594        C  0.43389555  0.12191346  0.32655846     0.00500
C595        C  0.41775636  0.10321109  0.30279635    -0.12500
C596        C  0.41930190  0.06631811  0.30074985     0.01000
C597        C  0.47270459  0.12093618  0.36942717     0.40300
C598        C  0.40147669  0.04805352  0.27690674     0.36900
C599        C  0.38666013  0.01416467  0.35204962     0.36700
C600        C  0.48221515  0.92989405  0.31504423     0.37400
N601        N  0.48778238  0.13523835  0.38795037    -0.43400
N602        N  0.38724171  0.03328657  0.25783303    -0.43800
N603        N  0.50236172  0.91348856  0.30876311    -0.41200
N604        N  0.36772025  0.03129571  0.36102396    -0.42600
H605        H  0.38989564  0.94516311  0.35679573     0.13500
H606        H  0.47764644  0.99900486  0.30768263     0.10000
H607        H  0.46959971  0.05213414  0.36063023     0.11100
H608        H  0.40267727  0.11713540  0.28711099     0.16900
C609        C  0.38934661  0.68393955  0.26721693    -0.01300
C610        C  0.40714116  0.67862729  0.23942155     0.07300
C611        C  0.43017418  0.70217274  0.23386751    -0.07300
C612        C  0.43601100  0.73006985  0.25595052     0.04700
C613        C  0.41892203  0.73431881  0.28468017    -0.14500
C614        C  0.39560636  0.71102530  0.28967097    -0.07800
C615        C  0.40196828  0.64882092  0.21588637     0.05700
C616        C  0.39459430  0.65618775  0.18284325    -0.08900
C617        C  0.39041452  0.62892366  0.15978192     0.00700
C618        C  0.39389161  0.59343864  0.16951621     0.00500
C619        C  0.40028104  0.58599064  0.20280543    -0.12500
C620        C  0.40445880  0.61323494  0.22589606     0.01000
C621        C  0.38207012  0.63790718  0.12636913     0.40300
C622        C  0.41249502  0.60409071  0.25939337     0.36900
C623        C  0.36376426  0.66289379  0.27252820     0.36700
C624        C  0.45975754  0.75350668  0.24861054     0.37400
N625        N  0.37521802  0.64503782  0.09961498    -0.43400
N626        N  0.41882473  0.59685779  0.28629885    -0.43800
N627        N  0.47875202  0.77228452  0.24246284    -0.41200
N628        N  0.34314680  0.64623128  0.27676261    -0.42600
H629        H  0.38154150  0.71456313  0.31083383     0.13500
H630        H  0.44371294  0.69862820  0.21226310     0.10000
H631        H  0.39213260  0.68336162  0.17504462     0.11100
H632        H  0.40328403  0.55886088  0.21047708     0.16900
C633        C  0.99531385  0.77860956  0.47515812    -0.01300
C634        C  0.01040786  0.76459870  0.50246150     0.07300
C635        C  0.03740121  0.74940021  0.49737544    -0.07300
C636        C  0.05021295  0.74982777  0.46598808     0.04700
C637        C  0.03604293  0.76619815  0.43908090    -0.14500
C638        C  0.00820291  0.77932210  0.44378690    -0.07800
C639        C  0.99883929  0.76674508  0.53665614     0.05700
C640        C  0.97362538  0.74820302  0.54461074    -0.08900
C641        C  0.96091833  0.75158349  0.57587945     0.00700
C642        C  0.97363975  0.77387494  0.60000663     0.00500
C643        C  0.99965928  0.79115147  0.59240931    -0.12500
C644        C  0.01219473  0.78793599  0.56099810     0.01000
C645        C  0.93487323  0.73178540  0.58233750     0.40300
C646        C  0.03793432  0.80805243  0.55373344     0.36900
C647        C  0.96716068  0.79385270  0.47901499     0.36700
C648        C  0.07761782  0.73269658  0.46203193     0.37400
N649        N  0.91399038  0.71590088  0.58741879    -0.43400
N650        N  0.05852681  0.82417678  0.54780707    -0.43800
N651        N  0.09945862  0.71868200  0.45888288    -0.41200
N652        N  0.94454264  0.80591786  0.48208845    -0.42600
H653        H  0.99699368  0.79163956  0.42328655     0.13500
H654        H  0.04864912  0.73763494  0.51814292     0.10000
H655        H  0.96359548  0.73146105  0.52607158     0.11100
H656        H  0.00961287  0.80846121  0.61052562     0.16900
C657        C  0.02691319  0.03461225  0.33141611    -0.01300
C658        C  0.04859989  0.01246229  0.31891099     0.07300
C659        C  0.07274443  0.02788694  0.30373199    -0.07300
C660        C  0.07663615  0.06457062  0.30325265     0.04700
C661        C  0.05630980  0.08676275  0.31880257    -0.14500
C662        C  0.03098105  0.07135572  0.33154229    -0.07800
C663        C  0.04762728  0.97333756  0.32309499     0.05700
C664        C  0.04845925  0.95152914  0.29499528    -0.08900
C665        C  0.05081949  0.91474762  0.29805866     0.00700
C666        C  0.05285625  0.89909099  0.32988142     0.00500
C667        C  0.05084423  0.92097675  0.35790833    -0.12500
C668        C  0.04842125  0.95758559  0.35483059     0.01000
C669        C  0.05227211  0.89412419  0.26807377     0.40300
C670        C  0.04852955  0.97846614  0.38474923     0.36900
C671        C  0.00046379  0.02008133  0.34448440     0.36700
C672        C  0.10175913  0.07856015  0.28662639     0.37400
N673        N  0.05336048  0.87762797  0.24399789    -0.43400
N674        N  0.04850835  0.99505573  0.40880469    -0.43800
N675        N  0.12179021  0.08976777  0.27310123    -0.41200
N676        N  0.97932432  0.00816805  0.35487101    -0.42600
H677        H  0.01481135  0.08786437  0.34287462     0.13500
H678        H  0.08913171  0.01111131  0.29315122     0.10000
H679        H  0.04787787  0.96340369  0.27052944     0.11100
H680        H  0.05222740  0.90960814  0.38253993     0.16900
C681        C  0.08465999  0.67242081  0.22729816    -0.01300
C682        C  0.08619946  0.63815295  0.24070029     0.07300
C683        C  0.08206525  0.63333245  0.27479906    -0.07300
C684        C  0.07749420  0.66213385  0.29582433     0.04700
C685        C  0.07677411  0.69681389  0.28266185    -0.14500
C686        C  0.07980558  0.70130707  0.24819674    -0.07800
C687        C  0.09188829  0.60692819  0.21953274     0.05700
C688        C  0.12003700  0.60020323  0.20875485    -0.08900
C689        C  0.12593344  0.57170724  0.18762353     0.00700
C690        C  0.10322493  0.54979921  0.17644192     0.00500
C691        C  0.07531593  0.55576388  0.18870143    -0.12500
C692        C  0.06955307  0.58385091  0.21004961     0.01000
C693        C  0.15523415  0.56644038  0.17715981     0.40300
C694        C  0.04038366  0.58904611  0.22116873     0.36900
C695        C  0.08822552  0.67856866  0.19219911     0.36700
C696        C  0.07375105  0.65507381  0.33076793     0.37400
N697        N  0.17892361  0.56235563  0.16938160    -0.43400
N698        N  0.01699459  0.59307199  0.23010277    -0.43800
N699        N  0.07085190  0.64936204  0.35877622    -0.41200
N700        N  0.09110236  0.68357450  0.16407477    -0.42600
H701        H  0.07935908  0.72757420  0.23760124     0.13500
H702        H  0.08283944  0.60692596  0.28508372     0.10000
H703        H  0.13738158  0.61755388  0.21658357     0.11100
H704        H  0.05772126  0.53873563  0.18096700     0.16900
C705        C  0.21920334  0.78045027  0.37123436    -0.01300
C706        C  0.23426677  0.80601111  0.35261590     0.07300
C707        C  0.21898083  0.82969259  0.33276847    -0.07300
C708        C  0.18891881  0.82851323  0.33145908     0.04700
C709        C  0.17366146  0.80285879  0.35011315    -0.14500
C710        C  0.18918069  0.77915542  0.36995148    -0.07800
C711        C  0.26599473  0.80874450  0.35360601     0.05700
C712        C  0.28169879  0.80046480  0.32505288    -0.08900
C713        C  0.31172318  0.80310395  0.32482304     0.00700
C714        C  0.32646050  0.81421792  0.35373620     0.00500
C715        C  0.31061750  0.82235865  0.38230751    -0.12500
C716        C  0.28060064  0.82011867  0.38231911     0.01000
C717        C  0.32677446  0.79314779  0.29496038     0.40300
C718        C  0.26515659  0.83078444  0.41164461     0.36900
C719        C  0.23410212  0.75487717  0.39131878     0.36700
C720        C  0.17449979  0.85468188  0.31160643     0.37400
N721        N  0.33880857  0.78514830  0.27103486    -0.43400
N722        N  0.25271045  0.83944132  0.43506418    -0.43800
N723        N  0.16307710  0.87581955  0.29575467    -0.41200
N724        N  0.24599476  0.73440816  0.40747871    -0.42600
H725        H  0.17787759  0.75914565  0.38420338     0.13500
H726        H  0.23062223  0.84950287  0.31860952     0.10000
H727        H  0.27042274  0.79172248  0.30295532     0.11100
H728        H  0.32167052  0.83124285  0.40449768     0.16900
loop_ 
_geom_bond_atom_site_label_1 
_geom_bond_atom_site_label_2 
_geom_bond_distance 
_geom_bond_site_symmetry_2 
_ccdc_geom_bond_type 
O1            C4   1.265       .  A
O1           Cd6   2.427       .  S
C2           O11   1.263       .  A
C2            O7   1.263       .  A
C2          C709   1.482       .  S
O3            C9   1.268       .  A
O3           Cd6   2.510       .  S
C4           O12   1.270       .  A
C4          C637   1.480       .  S
C5           O10   1.269       .  A
C5            O8   1.264       .  A
C5          C666   1.494       .  S
Cd6          O13   2.445       .  S
Cd6          O12   2.475       .  S
Cd6          O11   2.465       .  S
Cd6           O7   2.455       .  S
Cd6          O10   2.505       .  S
Cd6           O8   2.447       .  S
C9           O13   1.261       .  A
C9          C685   1.491       .  S
O14          C17   1.268       .  A
O14         Cd19   2.454       .  S
C15          O24   1.268       .  A
C15          O20   1.263       .  A
C15         C565   1.492       .  S
O16          C22   1.270       .  A
O16         Cd19   2.527       .  S
C17          O25   1.265       .  A
C17         C714   1.477       .  S
C18          O23   1.269       .  A
C18          O21   1.263       .  A
C18         C589   1.494       .  S
Cd19         O26   2.437       .  S
Cd19         O25   2.435       .  S
Cd19         O24   2.502       .  S
Cd19         O20   2.460       .  S
Cd19         O23   2.517       .  S
Cd19         O21   2.449       .  S
C22          O26   1.264       .  A
C22         C613   1.493       .  S
C27          C28   1.525       .  S
C27          C33   1.537       .  S
C27          C31   1.559       .  S
C27         C498   1.556       .  S
C28          H35   1.087       .  S
C28          C29   1.360       .  D
C29          C30   1.548       .  S
C29         C690   1.495       .  S
C30          C34   1.547       .  S
C30          C32   1.552       .  S
C30          H36   1.109       .  S
C31          H37   1.084       .  S
C31          C32   1.386       .  D
C32         C541   1.514       .  S
C33          H38   1.086       .  S
C33          C34   1.365       .  D
C34         C522   1.502       .  S
C39          C40   1.534       .  S
C39          C45   1.541       .  S
C39          C43   1.564       .  S
C39         C445   1.559       .  S
C40          H47   1.087       .  S
C40          C41   1.360       .  D
C41          C42   1.536       .  S
C41         C474   1.485       .  S
C42          C46   1.541       .  S
C42          C44   1.546       .  S
C42          H48   1.111       .  S
C43          H49   1.084       .  S
C43          C44   1.386       .  D
C44         C546   1.515       .  S
C45          H50   1.085       .  S
C45          C46   1.364       .  D
C46         C618   1.491       .  S
O51          C54   1.262       .  A
O51         Cd56   2.441       .  S
C52          O61   1.266       .  A
C52          O57   1.265       .  A
C52         C426   1.484       .  S
O53          C59   1.267       .  A
O53         Cd56   2.528       .  S
C54          O62   1.269       .  A
C54         C402   1.494       .  S
C55          O60   1.268       .  A
C55          O58   1.262       .  A
C55         C517   1.500       .  S
Cd56         O63   2.457       .  S
Cd56         O62   2.511       .  S
Cd56         O61   2.439       .  S
Cd56         O57   2.457       .  S
Cd56         O60   2.523       .  S
Cd56         O58   2.474       .  S
C59          O63   1.261       .  A
C59         C661   1.495       .  S
O64          C67   1.264       .  A
O64         Cd69   2.456       .  S
C65          O74   1.268       .  A
C65          O70   1.265       .  A
C65         C373   1.484       .  S
O66          C72   1.267       .  A
O66         Cd69   2.525       .  S
C67          O75   1.264       .  A
C67         C421   1.483       .  S
C68          O73   1.268       .  A
C68          O71   1.262       .  A
C68         C469   1.497       .  S
Cd69         O76   2.448       .  S
Cd69         O75   2.455       .  S
Cd69         O74   2.484       .  S
Cd69         O70   2.454       .  S
Cd69         O73   2.520       .  S
Cd69         O71   2.458       .  S
C72          O76   1.262       .  A
C72         C594   1.491       .  S
O77          C80   1.264       .  A
O77         Cd82   2.447       .  S
C78          O87   1.266       .  A
C78          O83   1.266       .  A
C78         C349   1.485       .  S
O79          C85   1.266       .  A
O79         Cd82   2.511       .  S
C80          O88   1.268       .  A
C80         C397   1.491       .  S
C81          O86   1.266       .  A
C81          O84   1.264       .  A
C81         C325   1.493       .  S
Cd82         O89   2.453       .  S
Cd82         O88   2.496       .  S
Cd82         O87   2.445       .  S
Cd82         O83   2.465       .  S
Cd82         O86   2.491       .  S
Cd82         O84   2.469       .  S
C85          O89   1.262       .  A
C85         C306   1.494       .  S
O90          C93   1.265       .  A
O90         Cd95   2.441       .  S
C91         O100   1.268       .  A
C91          O96   1.262       .  A
C91         C378   1.486       .  S
O92          C98   1.268       .  A
O92         Cd95   2.513       .  S
C93         O101   1.266       .  A
C93         C354   1.479       .  S
C94          O99   1.268       .  A
C94          O97   1.261       .  A
C94         C277   1.492       .  S
Cd95        O102   2.433       .  S
Cd95        O101   2.440       .  S
Cd95        O100   2.506       .  S
Cd95         O96   2.431       .  S
Cd95         O99   2.505       .  S
Cd95         O97   2.441       .  S
C98         O102   1.263       .  A
C98         C253   1.490       .  S
O103        C106   1.263       .  A
O103       Cd108   2.451       .  S
C104        O113   1.267       .  A
C104        O109   1.266       .  A
C104        C229   1.483       .  S
O105        C111   1.267       .  A
O105       Cd108   2.514       .  S
C106        O114   1.268       .  A
C106        C570   1.493       .  S
C107        O112   1.268       .  A
C107        O110   1.262       .  A
C107        C205   1.495       .  S
Cd108       O115   2.473       .  S
Cd108       O114   2.496       .  S
Cd108       O113   2.422       .  S
Cd108       O109   2.460       .  S
Cd108       O112   2.519       .  S
Cd108       O110   2.466       .  S
C111        O115   1.263       .  A
C111        C258   1.497       .  S
O116        C119   1.264       .  A
O116       Cd121   2.430       .  S
C117        O126   1.265       .  A
C117        O122   1.265       .  A
C117        C234   1.479       .  S
O118        C124   1.267       .  A
O118       Cd121   2.512       .  S
C119        O127   1.268       .  A
C119        C642   1.483       .  S
C120        O125   1.269       .  A
C120        O123   1.262       .  A
C120        C301   1.487       .  S
Cd121       O128   2.446       .  S
Cd121       O127   2.479       .  S
Cd121       O126   2.435       .  S
Cd121       O122   2.459       .  S
Cd121       O125   2.515       .  S
Cd121       O123   2.438       .  S
C124        O128   1.261       .  A
C124        C181   1.491       .  S
C129        C130   1.532       .  S
C129        C135   1.532       .  S
C129        C133   1.564       .  S
C129        C450   1.556       .  S
C130        H137   1.087       .  S
C130        C131   1.365       .  D
C131        C132   1.544       .  S
C131        C282   1.499       .  S
C132        C136   1.541       .  S
C132        C134   1.551       .  S
C132        H138   1.108       .  S
C133        H139   1.082       .  S
C133        C134   1.389       .  D
C134        C157   1.523       .  S
C135        H140   1.087       .  S
C135        C136   1.357       .  D
C136        C210   1.480       .  S
C141        C142   1.530       .  S
C141        C147   1.534       .  S
C141        C145   1.558       .  S
C141        C493   1.554       .  S
C142        H149   1.087       .  S
C142        C143   1.359       .  D
C143        C144   1.542       .  S
C143        C186   1.486       .  S
C144        C148   1.547       .  S
C144        C146   1.552       .  S
C144        H150   1.108       .  S
C145        H151   1.083       .  S
C145        C146   1.381       .  D
C146        C162   1.506       .  S
C147        H152   1.086       .  S
C147        C148   1.368       .  D
C148        C330   1.504       .  S
C153        C154   1.413       .  A
C153        C158   1.409       .  A
C153        C167   1.444       .  S
C154        C159   1.517       .  S
C154        C155   1.410       .  A
C155        C156   1.417       .  A
C155        H174   1.084       .  S
C156        C157   1.420       .  A
C156        C168   1.442       .  S
C157        C158   1.412       .  A
C158        H173   1.083       .  S
C159        C160   1.411       .  A
C159        C164   1.416       .  A
C160        C161   1.414       .  A
C160        H175   1.084       .  S
C161        C162   1.413       .  A
C161        C165   1.443       .  S
C162        C163   1.404       .  A
C163        C164   1.412       .  A
C163        H176   1.084       .  S
C164        C166   1.443       .  S
C165        N169   1.157       .  T
C166        N170   1.157       .  T
C167        N172   1.157       .  T
C168        N171   1.157   1_556  T
C177        C178   1.406       .  A
C177        C182   1.399       .  A
C177        C191   1.444       .  S
C178        C183   1.485       .  S
C178        C179   1.403       .  A
C179        C180   1.406       .  A
C179        H198   1.084       .  S
C180        C181   1.416       .  A
C180        C192   1.443       .  S
C181        C182   1.409       .  A
C182        H197   1.084       .  S
C183        C184   1.403       .  A
C183        C188   1.409       .  A
C184        C185   1.405       .  A
C184        H199   1.085       .  S
C185        C186   1.412       .  A
C185        C189   1.442       .  S
C186        C187   1.405       .  A
C187        C188   1.398       .  A
C187        H200   1.084       .  S
C188        C190   1.444       .  S
C189        N193   1.157       .  T
C190        N194   1.157       .  T
C191        N196   1.157       .  T
C192        N195   1.157       .  T
C201        C202   1.406       .  A
C201        C206   1.402       .  A
C201        C215   1.444       .  S
C202        C207   1.487       .  S
C202        C203   1.403       .  A
C203        C204   1.406       .  A
C203        H222   1.085       .  S
C204        C205   1.417       .  A
C204        C216   1.443       .  S
C205        C206   1.410       .  A
C206        H221   1.084       .  S
C207        C208   1.405       .  A
C207        C212   1.410       .  A
C208        C209   1.405       .  A
C208        H223   1.084       .  S
C209        C210   1.410       .  A
C209        C213   1.443       .  S
C210        C211   1.402       .  A
C211        C212   1.401       .  A
C211        H224   1.085       .  S
C212        C214   1.443       .  S
C213        N217   1.157       .  T
C214        N218   1.157       .  T
C215        N220   1.157       .  T
C216        N219   1.157       .  T
C225        C226   1.408       .  A
C225        C230   1.394       .  A
C225        C239   1.445       .  S
C226        C231   1.479       .  S
C226        C227   1.401       .  A
C227        C228   1.402       .  A
C227        H246   1.085       .  S
C228        C229   1.418       .  A
C228        C240   1.444       .  S
C229        C230   1.405       .  A
C230        H245   1.085       .  S
C231        C232   1.401       .  A
C231        C236   1.409       .  A
C232        C233   1.401       .  A
C232        H247   1.085       .  S
C233        C234   1.416       .  A
C233        C237   1.444       .  S
C234        C235   1.404       .  A
C235        C236   1.395       .  A
C235        H248   1.085       .  S
C236        C238   1.444       .  S
C237        N241   1.157       .  T
C238        N242   1.157       .  T
C239        N244   1.157       .  T
C240        N243   1.158       .  T
C249        C250   1.412       .  A
C249        C254   1.406       .  A
C249        C263   1.443       .  S
C250        C255   1.493   1_545  S
C250        C251   1.402       .  A
C251        C252   1.400       .  A
C251        H270   1.085       .  S
C252        C253   1.416       .  A
C252        C264   1.445       .  S
C253        C254   1.408       .  A
C254        H269   1.084       .  S
C255        C256   1.404       .  A
C255        C260   1.412       .  A
C256        C257   1.405       .  A
C256        H271   1.085       .  S
C257        C258   1.417       .  A
C257        C261   1.443       .  S
C258        C259   1.409       .  A
C259        C260   1.403       .  A
C259        H272   1.085       .  S
C260        C262   1.445   1_565  S
C261        N265   1.157       .  T
C262        N266   1.157       .  T
C263        N268   1.157       .  T
C264        N267   1.157       .  T
C273        C274   1.408       .  A
C273        C278   1.401       .  A
C273        C287   1.445       .  S
C274        C279   1.489       .  S
C274        C275   1.404       .  A
C275        C276   1.403       .  A
C275        H294   1.085       .  S
C276        C277   1.415       .  A
C276        C288   1.443       .  S
C277        C278   1.410       .  A
C278        H293   1.084       .  S
C279        C280   1.404       .  A
C279        C284   1.408       .  A
C280        C281   1.405       .  A
C280        H295   1.084       .  S
C281        C282   1.416       .  A
C281        C285   1.441       .  S
C282        C283   1.410       .  A
C283        C284   1.399       .  A
C283        H296   1.084       .  S
C284        C286   1.444       .  S
C285        N289   1.157       .  T
C286        N290   1.157       .  T
C287        N292   1.157       .  T
C288        N291   1.157       .  T
C297        C298   1.410       .  A
C297        C302   1.404       .  A
C297        C311   1.443       .  S
C298        C303   1.487   1_565  S
C298        C299   1.401       .  A
C299        C300   1.401       .  A
C299        H318   1.085       .  S
C300        C301   1.416       .  A
C300        C312   1.444       .  S
C301        C302   1.406       .  A
C302        H317   1.084       .  S
C303        C304   1.403       .  A
C303        C308   1.409       .  A
C304        C305   1.406       .  A
C304        H319   1.085       .  S
C305        C306   1.419       .  A
C305        C309   1.443       .  S
C306        C307   1.408       .  A
C307        C308   1.398       .  A
C307        H320   1.085       .  S
C308        C310   1.445       .  S
C309        N313   1.157   1_655  T
C310        N314   1.157   1_545  T
C311        N316   1.157       .  T
C312        N315   1.157       .  T
C321        C322   1.408       .  A
C321        C326   1.402       .  A
C321        C335   1.444       .  S
C322        C327   1.491       .  S
C322        C323   1.404       .  A
C323        C324   1.403       .  A
C323        H342   1.084       .  S
C324        C325   1.417       .  A
C324        C336   1.444       .  S
C325        C326   1.410       .  A
C326        H341   1.084       .  S
C327        C328   1.405       .  A
C327        C332   1.406       .  A
C328        C329   1.408       .  A
C328        H343   1.085       .  S
C329        C330   1.417       .  A
C329        C333   1.440       .  S
C330        C331   1.411       .  A
C331        C332   1.396       .  A
C331        H344   1.082       .  S
C332        C334   1.444       .  S
C333        N337   1.157       .  T
C334        N338   1.157       .  T
C335        N340   1.157       .  T
C336        N339   1.157       .  T
C345        C346   1.409       .  A
C345        C350   1.397       .  A
C345        C359   1.445       .  S
C346        C351   1.479       .  S
C346        C347   1.400       .  A
C347        C348   1.401       .  A
C347        H366   1.085       .  S
C348        C349   1.418       .  A
C348        C360   1.443       .  S
C349        C350   1.406       .  A
C350        H365   1.084       .  S
C351        C352   1.401       .  A
C351        C356   1.408       .  A
C352        C353   1.400       .  A
C352        H367   1.085       .  S
C353        C354   1.417       .  A
C353        C357   1.445       .  S
C354        C355   1.405       .  A
C355        C356   1.397       .  A
C355        H368   1.085       .  S
C356        C358   1.444       .  S
C357        N361   1.157       .  T
C358        N362   1.157       .  T
C359        N364   1.157       .  T
C360        N363   1.157       .  T
C369        C370   1.410       .  A
C369        C374   1.402       .  A
C369        C383   1.445       .  S
C370        C375   1.485       .  S
C370        C371   1.401       .  A
C371        C372   1.403       .  A
C371        H390   1.085       .  S
C372        C373   1.415       .  A
C372        C384   1.443       .  S
C373        C374   1.405       .  A
C374        H389   1.085       .  S
C375        C376   1.400       .  A
C375        C380   1.410       .  A
C376        C377   1.400       .  A
C376        H391   1.085       .  S
C377        C378   1.417       .  A
C377        C381   1.445       .  S
C378        C379   1.406       .  A
C379        C380   1.403       .  A
C379        H392   1.084       .  S
C380        C382   1.444       .  S
C381        N385   1.157       .  T
C382        N386   1.157       .  T
C383        N388   1.157       .  T
C384        N387   1.157       .  T
C393        C394   1.410       .  A
C393        C398   1.405       .  A
C393        C407   1.444   1_655  S
C394        C399   1.489   1_655  S
C394        C395   1.400       .  A
C395        C396   1.400       .  A
C395        H414   1.085       .  S
C396        C397   1.418       .  A
C396        C408   1.443       .  S
C397        C398   1.408       .  A
C398        H413   1.084       .  S
C399        C400   1.400       .  A
C399        C404   1.410   1_455  A
C400        C401   1.401       .  A
C400        H415   1.085       .  S
C401        C402   1.421       .  A
C401        C405   1.445       .  S
C402        C403   1.408       .  A
C403        C404   1.404   1_455  A
C403        H416   1.084       .  S
C404        C406   1.444       .  S
C405        N409   1.157       .  T
C406        N410   1.157       .  T
C407        N412   1.157       .  T
C408        N411   1.157       .  T
C417        C418   1.406       .  A
C417        C422   1.400       .  A
C417        C431   1.444       .  S
C418        C423   1.479       .  S
C418        C419   1.401       .  A
C419        C420   1.397       .  A
C419        H438   1.085       .  S
C420        C421   1.416       .  A
C420        C432   1.444       .  S
C421        C422   1.409       .  A
C422        H437   1.084       .  S
C423        C424   1.401       .  A
C423        C428   1.407       .  A
C424        C425   1.400       .  A
C424        H439   1.085       .  S
C425        C426   1.417       .  A
C425        C429   1.444       .  S
C426        C427   1.407       .  A
C427        C428   1.397       .  A
C427        H440   1.085       .  S
C428        C430   1.444       .  S
C429        N433   1.157       .  T
C430        N434   1.157       .  T
C431        N436   1.157       .  T
C432        N435   1.157       .  T
C441        C442   1.424       .  A
C441        C446   1.417       .  A
C441        C455   1.444   1_554  S
C442        C447   1.525       .  S
C442        C443   1.403       .  A
C443        C444   1.406       .  A
C443        H462   1.083       .  S
C444        C445   1.429       .  A
C444        C456   1.445       .  S
C445        C446   1.411       .  A
C446        H461   1.082       .  S
C447        C448   1.404   1_554  A
C447        C452   1.425       .  A
C448        C449   1.405       .  A
C448        H463   1.084       .  S
C449        C450   1.428       .  A
C449        C453   1.447       .  S
C450        C451   1.409       .  A
C451        C452   1.416   1_556  A
C451        H464   1.081   1_556  S
C452        C454   1.443       .  S
C453        N457   1.158       .  T
C454        N458   1.157       .  T
C455        N460   1.157       .  T
C456        N459   1.157       .  T
C465        C466   1.408       .  A
C465        C470   1.402       .  A
C465        C479   1.444       .  S
C466        C471   1.491       .  S
C466        C467   1.404       .  A
C467        C468   1.406       .  A
C467        H486   1.084       .  S
C468        C469   1.417       .  A
C468        C480   1.443       .  S
C469        C470   1.411       .  A
C470        H485   1.084       .  S
C471        C472   1.403       .  A
C471        C476   1.413       .  A
C472        C473   1.403       .  A
C472        H487   1.084       .  S
C473        C474   1.411       .  A
C473        C477   1.443       .  S
C474        C475   1.403       .  A
C475        C476   1.404       .  A
C475        H488   1.085       .  S
C476        C478   1.444       .  S
C477        N481   1.157       .  T
C478        N482   1.157       .  T
C479        N484   1.157       .  T
C480        N483   1.157       .  T
C489        C490   1.424       .  A
C489        C494   1.415   1_554  A
C489        C503   1.443       .  S
C490        C495   1.522   1_655  S
C490        C491   1.403   1_554  A
C491        C492   1.404       .  A
C491        H510   1.084   1_655  S
C492        C493   1.428       .  A
C492        C504   1.446       .  S
C493        C494   1.408       .  A
C494        H509   1.081   1_556  S
C495        C496   1.402       .  A
C495        C500   1.423       .  A
C496        C497   1.402       .  A
C496        H511   1.084   1_455  S
C497        C498   1.429       .  A
C497        C501   1.446       .  S
C498        C499   1.411       .  A
C499        C500   1.418       .  A
C499        H512   1.082       .  S
C500        C502   1.444   1_554  S
C501        N505   1.157       .  T
C502        N506   1.157       .  T
C503        N508   1.157       .  T
C504        N507   1.157       .  T
C513        C514   1.412       .  A
C513        C518   1.406       .  A
C513        C527   1.443       .  S
C514        C519   1.497       .  S
C514        C515   1.402       .  A
C515        C516   1.405       .  A
C515        H534   1.085       .  S
C516        C517   1.422       .  A
C516        C528   1.444       .  S
C517        C518   1.408       .  A
C518        H533   1.084       .  S
C519        C520   1.405       .  A
C519        C524   1.410       .  A
C520        C521   1.407       .  A
C520        H535   1.085       .  S
C521        C522   1.416       .  A
C521        C525   1.442       .  S
C522        C523   1.409       .  A
C523        C524   1.403       .  A
C523        H536   1.084       .  S
C524        C526   1.444       .  S
C525        N529   1.157       .  T
C526        N530   1.157       .  T
C527        N532   1.157       .  T
C528        N531   1.158       .  T
C537        C538   1.415       .  A
C537        C542   1.413       .  A
C537        C551   1.443       .  S
C538        C543   1.517       .  S
C538        C539   1.410       .  A
C539        C540   1.415       .  A
C539        H558   1.084       .  S
C540        C541   1.416       .  A
C540        C552   1.442       .  S
C541        C542   1.409       .  A
C542        H557   1.085       .  S
C543        C544   1.411       .  A
C543        C548   1.415       .  A
C544        C545   1.416       .  A
C544        H559   1.084       .  S
C545        C546   1.416       .  A
C545        C549   1.442       .  S
C546        C547   1.409       .  A
C547        C548   1.411       .  A
C547        H560   1.085       .  S
C548        C550   1.443       .  S
C549        N553   1.157       .  T
C550        N554   1.157       .  T
C551        N556   1.157       .  T
C552        N555   1.157       .  T
C561        C562   1.411       .  A
C561        C566   1.404       .  A
C561        C575   1.444       .  S
C562        C567   1.490       .  S
C562        C563   1.401       .  A
C563        C564   1.402       .  A
C563        H582   1.085       .  S
C564        C565   1.419       .  A
C564        C576   1.444       .  S
C565        C566   1.407       .  A
C566        H581   1.084       .  S
C567        C568   1.401       .  A
C567        C572   1.410       .  A
C568        C569   1.401       .  A
C568        H583   1.085       .  S
C569        C570   1.420       .  A
C569        C573   1.444       .  S
C570        C571   1.408       .  A
C571        C572   1.403       .  A
C571        H584   1.084       .  S
C572        C574   1.443       .  S
C573        N577   1.157       .  T
C574        N578   1.157       .  T
C575        N580   1.157       .  T
C576        N579   1.157       .  T
C585        C586   1.410   1_565  A
C585        C590   1.400       .  A
C585        C599   1.445   1_565  S
C586        C591   1.491       .  S
C586        C587   1.404   1_545  A
C587        C588   1.408       .  A
C587        H606   1.085       .  S
C588        C589   1.417       .  A
C588        C600   1.443       .  S
C589        C590   1.408       .  A
C590        H605   1.085       .  S
C591        C592   1.401       .  A
C591        C596   1.412       .  A
C592        C593   1.402       .  A
C592        H607   1.085       .  S
C593        C594   1.417       .  A
C593        C597   1.444       .  S
C594        C595   1.407       .  A
C595        C596   1.405       .  A
C595        H608   1.084       .  S
C596        C598   1.444       .  S
C597        N601   1.157       .  T
C598        N602   1.157       .  T
C599        N604   1.157       .  T
C600        N603   1.157       .  T
C609        C610   1.409       .  A
C609        C614   1.400       .  A
C609        C623   1.444       .  S
C610        C615   1.496       .  S
C610        C611   1.408       .  A
C611        C612   1.409       .  A
C611        H630   1.084       .  S
C612        C613   1.415       .  A
C612        C624   1.443       .  S
C613        C614   1.408       .  A
C614        H629   1.084       .  S
C615        C616   1.404       .  A
C615        C620   1.415       .  A
C616        C617   1.405       .  A
C616        H631   1.085       .  S
C617        C618   1.413       .  A
C617        C621   1.443       .  S
C618        C619   1.404       .  A
C619        C620   1.405       .  A
C619        H632   1.085       .  S
C620        C622   1.444       .  S
C621        N625   1.157       .  T
C622        N626   1.157       .  T
C623        N628   1.157       .  T
C624        N627   1.157       .  T
C633        C634   1.411   1_655  A
C633        C638   1.400   1_655  A
C633        C647   1.444       .  S
C634        C639   1.483   1_455  S
C634        C635   1.401       .  A
C635        C636   1.399       .  A
C635        H654   1.085       .  S
C636        C637   1.415       .  A
C636        C648   1.444       .  S
C637        C638   1.404       .  A
C638        H653   1.085   1_455  S
C639        C640   1.400       .  A
C639        C644   1.411   1_655  A
C640        C641   1.399       .  A
C640        H655   1.085       .  S
C641        C642   1.417       .  A
C641        C645   1.444       .  S
C642        C643   1.406       .  A
C643        C644   1.400   1_655  A
C643        H656   1.085   1_655  S
C644        C646   1.445       .  S
C645        N649   1.157       .  T
C646        N650   1.157       .  T
C647        N652   1.157       .  T
C648        N651   1.157       .  T
C657        C658   1.412       .  A
C657        C662   1.406       .  A
C657        C671   1.444       .  S
C658        C663   1.495   1_545  S
C658        C659   1.403       .  A
C659        C660   1.403       .  A
C659        H678   1.085       .  S
C660        C661   1.418       .  A
C660        C672   1.444       .  S
C661        C662   1.408       .  A
C662        H677   1.084       .  S
C663        C664   1.405       .  A
C663        C668   1.412       .  A
C664        C665   1.407       .  A
C664        H679   1.084       .  S
C665        C666   1.417       .  A
C665        C669   1.443       .  S
C666        C667   1.407       .  A
C667        C668   1.400       .  A
C667        H680   1.084       .  S
C668        C670   1.444       .  S
C669        N673   1.157       .  T
C670        N674   1.157       .  T
C671        N676   1.157   1_455  T
C672        N675   1.157       .  T
C681        C682   1.410       .  A
C681        C686   1.404       .  A
C681        C695   1.443       .  S
C682        C687   1.487       .  S
C682        C683   1.400       .  A
C683        C684   1.402       .  A
C683        H702   1.085       .  S
C684        C685   1.419       .  A
C684        C696   1.444       .  S
C685        C686   1.407       .  A
C686        H701   1.085       .  S
C687        C688   1.405       .  A
C687        C692   1.407       .  A
C688        C689   1.407       .  A
C688        H703   1.085       .  S
C689        C690   1.413       .  A
C689        C693   1.442       .  S
C690        C691   1.409       .  A
C691        C692   1.399       .  A
C691        H704   1.085       .  S
C692        C694   1.444       .  S
C693        N697   1.157       .  T
C694        N698   1.157       .  T
C695        N700   1.157       .  T
C696        N699   1.157       .  T
C705        C706   1.408       .  A
C705        C710   1.398       .  A
C705        C719   1.444       .  S
C706        C711   1.479       .  S
C706        C707   1.401       .  A
C707        C708   1.399       .  A
C707        H726   1.085       .  S
C708        C709   1.416       .  A
C708        C720   1.444       .  S
C709        C710   1.406       .  A
C710        H725   1.085       .  S
C711        C712   1.401       .  A
C711        C716   1.409       .  A
C712        C713   1.399       .  A
C712        H727   1.085       .  S
C713        C714   1.416       .  A
C713        C717   1.445       .  S
C714        C715   1.404       .  A
C715        C716   1.398       .  A
C715        H728   1.085       .  S
C716        C718   1.444       .  S
C717        N721   1.158       .  T
C718        N722   1.157       .  T
C719        N724   1.157       .  T
C720        N723   1.157       .  T
