geometry optimzed in LAMMPS
_audit_creation_date              2020-11-30 
_audit_creation_method            'lammps2cif' 
_symmetry_space_group_name_H-M    'P1' 
_symmetry_Int_Tables_number       1 
_symmetry_cell_setting            triclinic 
loop_ 
_symmetry_equiv_pos_as_xyz 
  x,y,z 
_cell_length_a                    39.9485269 
_cell_length_b                    39.71603050921159 
_cell_length_c                    39.72091459012285 
_cell_angle_alpha                 89.98895557029662 
_cell_angle_beta                  90.02367275324345 
_cell_angle_gamma                 89.96669645514073 
loop_ 
_atom_site_label 
_atom_site_type_symbol 
_atom_site_fract_x 
_atom_site_fract_y 
_atom_site_fract_z 
_atom_site_charge 
Zn1        Zn  0.99345853  0.04883707  0.99033710     1.49700
Zn2        Zn  0.04884942  0.99013462  0.99248359     1.49400
Zn3        Zn  0.99084047  0.99326174  0.04815749     1.49100
Zn4        Zn  0.97298935  0.97234610  0.97102792     1.49500
O5          O  0.00132845  0.00088606  0.00029643    -1.82000
O6          O  0.03520232  0.07156576  0.97252428    -0.72600
O7          O  0.07137489  0.97177476  0.03463051    -0.72500
O8          O  0.97245370  0.03535573  0.07118716    -0.72000
O9          O  0.07329550  0.03059101  0.97388741    -0.72700
O10         O  0.97446296  0.07373746  0.03044438    -0.72300
O11         O  0.03082458  0.97409855  0.07301004    -0.72800
O12         O  0.94145860  0.94376661  0.00049666    -0.72200
O13         O  0.05432744  0.95378960  0.95776504    -0.73000
O14         O  0.95486655  0.95863062  0.05288003    -0.72400
O15         O  0.00244203  0.94045524  0.94237769    -0.72800
O16         O  0.94472436  0.00236218  0.93942776    -0.72800
O17         O  0.95942754  0.05444340  0.95393654    -0.72500
C18         C  0.06455903  0.06057870  0.96668075     0.79200
C19         C  0.06047682  0.96622087  0.06424277     0.79700
C20         C  0.96680745  0.06499527  0.06028997     0.78700
C21         C  0.93760496  0.94136809  0.03235973     0.79100
C22         C  0.03413251  0.93638411  0.94028231     0.80200
C23         C  0.94241091  0.03430109  0.93603472     0.79300
C24         C  0.06991355  0.35556927  0.11283399     0.82300
N25         N  0.04580580  0.33165590  0.11234460    -0.76000
C26         C  0.05164561  0.30066892  0.12527830     0.84800
N27         N  0.08190760  0.29364943  0.13892248    -0.75900
C28         C  0.10625044  0.31729953  0.13982242     0.84900
N29         N  0.10042565  0.34855794  0.12669953    -0.77600
C30         C  0.93062832  0.14502129  0.11199670     0.82300
N31         N  0.95476694  0.16890033  0.11223346    -0.76000
C32         C  0.94837830  0.20010403  0.12431986     0.84800
N33         N  0.91755294  0.20741854  0.13644036    -0.75900
C34         C  0.89315886  0.18378733  0.13669578     0.84900
N35         N  0.89953360  0.15229885  0.12435912    -0.77600
C36         C  0.85485650  0.11063246  0.42969236     0.82300
N37         N  0.83099416  0.11173051  0.45379551    -0.76000
C38         C  0.80049748  0.12504940  0.44725633     0.84800
N39         N  0.79389774  0.13744980  0.41621124    -0.75900
C40         C  0.81751225  0.13672875  0.39179024     0.84900
N41         N  0.84830474  0.12323803  0.39837027    -0.77600
C42         C  0.68471846  0.13818732  0.60675170     0.82300
N43         N  0.70787238  0.13849475  0.58193363    -0.76000
C44         C  0.70046124  0.12643946  0.55096868     0.84800
N45         N  0.66961765  0.11377217  0.54482822    -0.75900
C46         C  0.64619192  0.11292036  0.56941993     0.84900
N47         N  0.65357728  0.12525684  0.60069045    -0.77600
Zn48       Zn  0.69989799  0.25682758  0.23752081     1.49700
Zn49       Zn  0.75475737  0.25907042  0.29622789     1.49400
Zn50       Zn  0.75842571  0.20140883  0.24023182     1.49100
Zn51       Zn  0.77589849  0.27823710  0.21978209     1.49500
O52         O  0.74743815  0.24908068  0.24822851    -1.82000
O53         O  0.67483893  0.27526914  0.27774297    -0.72600
O54         O  0.77359709  0.21879446  0.32102866    -0.72500
O55         O  0.71856686  0.17652864  0.22120470    -0.72000
O56         O  0.71268706  0.27675789  0.31886851    -0.72700
O57         O  0.67767382  0.21463777  0.21931542    -0.72300
O58         O  0.77643060  0.17838534  0.28232535    -0.72800
O59         O  0.80792328  0.24922197  0.19127955    -0.72200
O60         O  0.78886858  0.29542922  0.30189603    -0.73000
O61         O  0.79481130  0.19672292  0.20581653    -0.72400
O62         O  0.80388641  0.30968661  0.24981846    -0.72800
O63         O  0.74654995  0.30689406  0.18806562    -0.72800
O64         O  0.69460819  0.29150158  0.20124178    -0.72500
C65         C  0.68330529  0.28242604  0.30780226     0.79200
C66         C  0.78155395  0.18906306  0.31211417     0.79700
C67         C  0.68877146  0.18511244  0.21369342     0.78700
C68         C  0.81213671  0.21741687  0.18882130     0.79100
C69         C  0.80606231  0.31315196  0.28173038     0.80200
C70         C  0.71487922  0.30902432  0.18398873     0.79300
C71         C  0.85628998  0.61322861  0.56785079     0.82300
N72         N  0.83202190  0.61218119  0.54414085    -0.76000
C73         C  0.80092354  0.62383280  0.55087070     0.84800
N74         N  0.79412017  0.63681584  0.58160798    -0.75900
C75         C  0.81815102  0.63831766  0.60557492     0.84900
N76         N  0.84954575  0.62640488  0.59888374    -0.77600
C77         C  0.68190180  0.63783159  0.39441543     0.82300
N78         N  0.70578166  0.63626870  0.41849662    -0.76000
C79         C  0.69907941  0.62270749  0.44900403     0.84800
N80         N  0.66813068  0.61048375  0.45546192    -0.75900
C81         C  0.64389274  0.61153257  0.43168647     0.84900
N82         N  0.65059898  0.62536124  0.40083417    -0.77600
Zn83       Zn  0.00902997  0.49310643  0.44919582     1.49700
Zn84       Zn  0.95061607  0.49094493  0.50457241     1.49400
Zn85       Zn  0.02635556  0.47272724  0.52641957     1.49100
Zn86       Zn  0.00623241  0.54915271  0.50697479     1.49500
O87         O  0.99824111  0.50125800  0.49694272    -1.82000
O88         O  0.96904502  0.47395281  0.42419363    -0.72600
O89         O  0.94494775  0.45452876  0.53913290    -0.72500
O90         O  0.05808658  0.44401848  0.49753245    -0.72000
O91         O  0.92823775  0.47262849  0.46236451    -0.72700
O92         O  0.04502281  0.45828450  0.44490852    -0.72300
O93         O  0.99675104  0.44105126  0.55476380    -0.72800
O94         O  0.04026083  0.55460060  0.54350433    -0.72200
O95         O  0.92621708  0.53147978  0.52340007    -0.73000
O96         O  0.05452177  0.50243878  0.55816999    -0.72400
O97         O  0.96447997  0.57222968  0.52482336    -0.72800
O98         O  0.02576392  0.57356537  0.46685267    -0.72800
O99         O  0.02799048  0.53497945  0.42627069    -0.72500
C100        C  0.93925466  0.46652710  0.43290145     0.79200
C101        C  0.96506467  0.43707382  0.55668243     0.79700
C102        C  0.06219985  0.44129406  0.46575545     0.78700
C103        C  0.05706073  0.53434125  0.56152233     0.79100
C104        C  0.93507599  0.56139392  0.53075323     0.80200
C105        C  0.03379332  0.56458603  0.43716855     0.79300
C106        C  0.39624341  0.81940729  0.13932308     0.82300
N107        N  0.42062153  0.79577885  0.14082753    -0.76000
C108        C  0.45171386  0.80244513  0.12904398     0.84800
N109        N  0.45833807  0.83298979  0.11550268    -0.75900
C110        C  0.43421293  0.85682137  0.11360460     0.84900
N111        N  0.40285810  0.85017976  0.12553903    -0.77600
C112        C  0.60832368  0.68215743  0.13703082     0.82300
N113        N  0.58437533  0.70622740  0.13839991    -0.76000
C114        C  0.55334900  0.70028155  0.12609605     0.84800
N115        N  0.54631789  0.67002882  0.11211971    -0.75900
C116        C  0.57002026  0.64575814  0.11025070     0.84900
N117        N  0.60130613  0.65161923  0.12285978    -0.77600
C118        C  0.13461210  0.10547327  0.31849944     0.82300
N119        N  0.13269083  0.08154509  0.29431647    -0.76000
C120        C  0.11858548  0.05125710  0.30090089     0.84800
N121        N  0.10625596  0.04494445  0.33197589    -0.75900
C122        C  0.10775677  0.06853299  0.35645176     0.84900
N123        N  0.12210315  0.09910088  0.34991721    -0.77600
C124        C  0.11117250  0.93001201  0.14446724     0.82300
N125        N  0.12504090  0.89941785  0.15180482    -0.76000
C126        C  0.13669132  0.89337796  0.18360658     0.84800
N127        N  0.13429013  0.91760373  0.20745280    -0.75900
C128        C  0.12069453  0.94793666  0.20001171     0.84900
N129        N  0.10931513  0.95400678  0.16852945    -0.77600
Zn130      Zn  0.24428782  0.76114079  0.20175985     1.49700
Zn131      Zn  0.29967845  0.75806005  0.26030587     1.49400
Zn132      Zn  0.22389114  0.77919063  0.27869549     1.49100
Zn133      Zn  0.24151183  0.70261169  0.25675968     1.49500
O134        O  0.25213711  0.75048135  0.24955470    -1.82000
O135        O  0.28633255  0.77917090  0.17918015    -0.72600
O136        O  0.30528323  0.79320904  0.29614367    -0.72500
O137        O  0.19444041  0.81013921  0.24938125    -0.72000
O138        O  0.32455761  0.77606522  0.21990428    -0.72700
O139        O  0.20966806  0.79739809  0.19696442    -0.72300
O140        O  0.25340888  0.80866175  0.30947930    -0.72800
O141        O  0.20630407  0.69727953  0.29205851    -0.72200
O142        O  0.32184359  0.71587409  0.27877560    -0.73000
O143        O  0.19369489  0.74941373  0.30836131    -0.72400
O144        O  0.28141214  0.67748679  0.27504143    -0.72800
O145        O  0.22304820  0.68001853  0.21463649    -0.72800
O146        O  0.22563041  0.72095352  0.17647122    -0.72500
C147        C  0.31593721  0.78399075  0.19007987     0.79200
C148        C  0.28509766  0.81099104  0.31325280     0.79700
C149        C  0.19210210  0.81430227  0.21755304     0.78700
C150        C  0.18982836  0.71753133  0.31037050     0.79100
C151        C  0.31091416  0.68613318  0.28344746     0.80200
C152        C  0.21783170  0.69105619  0.18498763     0.79300
Zn153      Zn  0.24212757  0.23841404  0.30026290     1.49700
Zn154      Zn  0.23947327  0.29760298  0.24551384     1.49400
Zn155      Zn  0.29693443  0.24190478  0.24105542     1.49100
Zn156      Zn  0.22067464  0.22095493  0.22386640     1.49500
O157        O  0.24957023  0.24953005  0.25248627    -1.82000
O158        O  0.22383426  0.27843680  0.32590774    -0.72600
O159        O  0.27939105  0.32273033  0.22643924    -0.72500
O160        O  0.32217218  0.22346444  0.28095833    -0.72000
O161        O  0.22210127  0.31989292  0.28821584    -0.72700
O162        O  0.28446923  0.22063566  0.32217711    -0.72300
O163        O  0.31946296  0.28397897  0.22276600    -0.72800
O164        O  0.24964050  0.19235500  0.19170149    -0.72200
O165        O  0.20302627  0.30318057  0.21138008    -0.73000
O166        O  0.30175126  0.20731971  0.20472124    -0.72400
O167        O  0.18936445  0.25106654  0.19581869    -0.72800
O168        O  0.19209882  0.18922471  0.25337048    -0.72800
O169        O  0.20777374  0.20189320  0.30562962    -0.72500
C170        C  0.21665985  0.30858439  0.31771876     0.79200
C171        C  0.30885418  0.31383134  0.21802067     0.79700
C172        C  0.31390047  0.21572238  0.31091109     0.78700
C173        C  0.28128069  0.19003913  0.18746574     0.79100
C174        C  0.18559379  0.28296926  0.19391107     0.80200
C175        C  0.19012883  0.18488140  0.28520225     0.79300
C176        C  0.56490268  0.85649320  0.61440806     0.82300
N177        N  0.59609738  0.85059008  0.62726970    -0.76000
C178        C  0.60310848  0.81993667  0.64120004     0.84800
N179        N  0.57930799  0.79576172  0.64193088    -0.75900
C180        C  0.54841311  0.80166592  0.62927789     0.84900
N181        N  0.54132605  0.83206464  0.61560196    -0.77600
C182        C  0.43377717  0.64184972  0.61531351     0.82300
N183        N  0.45710095  0.66646138  0.61688499    -0.76000
C184        C  0.44933279  0.69711114  0.62953750     0.84800
N185        N  0.41792271  0.70310070  0.64077985    -0.75900
C186        C  0.39431821  0.67871942  0.63960797     0.84900
N187        N  0.40206040  0.64781278  0.62669846    -0.77600
Zn188      Zn  0.54938183  0.99008915  0.50778174     1.49700
Zn189      Zn  0.49520680  0.04917609  0.51003633     1.49400
Zn190      Zn  0.49175820  0.99308664  0.45175457     1.49100
Zn191      Zn  0.47235142  0.97304180  0.52777590     1.49500
O192        O  0.50201233  0.00116820  0.49956857    -1.82000
O193        O  0.57469972  0.02990314  0.52714160    -0.72600
O194        O  0.47644281  0.07372792  0.46970975    -0.72500
O195        O  0.53186960  0.97464035  0.42698031    -0.72000
O196        O  0.53753388  0.07164342  0.52784932    -0.72700
O197        O  0.57227429  0.97237101  0.46555011    -0.72300
O198        O  0.47412501  0.03508133  0.42913209    -0.72800
O199        O  0.43993767  0.94549657  0.49804174    -0.72200
O200        O  0.46112614  0.05508278  0.54657788    -0.73000
O201        O  0.45515570  0.95906266  0.44590871    -0.72400
O202        O  0.44480897  0.00309169  0.55958104    -0.72800
O203        O  0.50085263  0.94070932  0.55635956    -0.72800
O204        O  0.55331074  0.95342399  0.54216993    -0.72500
C205        C  0.56666162  0.06014892  0.53407854     0.79200
C206        C  0.46874610  0.06474059  0.43993279     0.79700
C207        C  0.56161206  0.96722092  0.43576553     0.78700
C208        C  0.43663657  0.94282137  0.46613968     0.79100
C209        C  0.44341090  0.03494556  0.56383101     0.80200
C210        C  0.53243080  0.93630652  0.55911661     0.79300
C211        C  0.35583964  0.38932453  0.57080288     0.82300
N212        N  0.34865648  0.37597626  0.60165243    -0.76000
C213        C  0.31699863  0.36471986  0.60809670     0.84800
N214        N  0.29314602  0.36691045  0.58402496    -0.75900
C215        C  0.30034138  0.38002271  0.55342918     0.84900
N216        N  0.33171727  0.39108616  0.54693759    -0.77600
C217        C  0.18150568  0.36273558  0.39690685     0.82300
N218        N  0.20558041  0.36494156  0.42079553    -0.76000
C219        C  0.19885028  0.37896419  0.45111974     0.84800
N220        N  0.16776579  0.39091647  0.45749268    -0.75900
C221        C  0.14346791  0.38912316  0.43384657     0.84900
N222        N  0.15016619  0.37491828  0.40327572    -0.77600
C223        C  0.56756326  0.35659671  0.38693485     0.82300
N224        N  0.54370756  0.33245461  0.38764272    -0.76000
C225        C  0.55010570  0.30128301  0.37553743     0.84800
N226        N  0.58061764  0.29430230  0.36247261    -0.75900
C227        C  0.60466874  0.31824934  0.36131535     0.84900
N228        N  0.59831512  0.34968187  0.37365642    -0.77600
C229        C  0.39391250  0.18141309  0.36293318     0.82300
N230        N  0.41763859  0.20573491  0.36360352    -0.76000
C231        C  0.44845612  0.19921458  0.37622802     0.84800
N232        N  0.45542202  0.16814855  0.38829618    -0.75900
C233        C  0.43194088  0.14366937  0.38794136     0.84900
N234        N  0.40090656  0.15010577  0.37517838    -0.77600
C235        C  0.61286701  0.56522417  0.85693383     0.82300
N236        N  0.61354730  0.54166221  0.83234701    -0.76000
C237        C  0.62647685  0.54896111  0.80171409     0.84800
N238        N  0.63889871  0.58007675  0.79574676    -0.75900
C239        C  0.63862024  0.60385112  0.82011439     0.84900
N240        N  0.62546275  0.59661263  0.85098056    -0.77600
C241        C  0.64071072  0.39441978  0.67906540     0.82300
N242        N  0.64049179  0.41822284  0.70339867    -0.76000
C243        C  0.62740144  0.44906062  0.69740354     0.84800
N244        N  0.61428643  0.45607643  0.66678128    -0.75900
C245        C  0.61405132  0.43249103  0.64221103     0.84900
N246        N  0.62734689  0.40135398  0.64817698    -0.77600
Zn247      Zn  0.45212957  0.50964707  0.50865419     1.49700
Zn248      Zn  0.52881161  0.52804325  0.52795889     1.49400
Zn249      Zn  0.50705002  0.45143415  0.51008480     1.49100
Zn250      Zn  0.50915866  0.50763541  0.45198849     1.49500
O251        O  0.49952047  0.49938625  0.49987994    -1.82000
O252        O  0.44769345  0.54559654  0.54346501    -0.72600
O253        O  0.55767420  0.49822282  0.55881784    -0.72500
O254        O  0.46540173  0.42838734  0.52865702    -0.72000
O255        O  0.49994322  0.55923771  0.55750599    -0.72700
O256        O  0.42761147  0.46953220  0.52776007    -0.72300
O257        O  0.54195361  0.44602736  0.54579663    -0.72800
O258        O  0.52694475  0.46573308  0.42894547    -0.72200
O259        O  0.55996416  0.55682592  0.49794932    -0.73000
O260        O  0.52519829  0.42697339  0.46943787    -0.72400
O261        O  0.54508480  0.54245609  0.44591326    -0.72800
O262        O  0.46839614  0.52570584  0.42795291    -0.72800
O263        O  0.42852732  0.52745399  0.46708293    -0.72500
C264        C  0.46829502  0.56287287  0.56054763     0.79200
C265        C  0.55972925  0.46635632  0.56275292     0.79700
C266        C  0.43613661  0.43949107  0.53485818     0.78700
C267        C  0.53247704  0.43601074  0.43957556     0.79100
C268        C  0.56311125  0.55943786  0.46601569     0.80200
C269        C  0.43873310  0.53284971  0.43721513     0.79300
C270        C  0.31535521  0.13611508  0.10732574     0.82300
N271        N  0.29182674  0.13487164  0.08286066    -0.76000
C272        C  0.29899012  0.12156052  0.05233121     0.84800
N273        N  0.33004526  0.10933795  0.04631084    -0.75900
C274        C  0.35389743  0.11019301  0.07048695     0.84900
N275        N  0.34672430  0.12372282  0.10129653    -0.77600
C276        C  0.18247050  0.13663342  0.89353588     0.82300
N277        N  0.20623324  0.13523324  0.91780011    -0.76000
C278        C  0.19895036  0.12258691  0.94857465     0.84800
N279        N  0.16771923  0.11117178  0.95500521    -0.75900
C280        C  0.14380114  0.11211978  0.93094138     0.84900
N281        N  0.15097849  0.12498205  0.89992910    -0.77600
C282        C  0.11107628  0.43211817  0.85466446     0.82300
N283        N  0.11071480  0.45575501  0.83016791    -0.76000
C284        C  0.12315808  0.44893455  0.79923978     0.84800
N285        N  0.13624484  0.41816409  0.79279462    -0.75900
C286        C  0.13712773  0.39422995  0.81703181     0.84900
N287        N  0.12445110  0.40105209  0.84829172    -0.77600
C288        C  0.10979655  0.56847723  0.64203013     0.82300
N289        N  0.11005274  0.54449948  0.66620151    -0.76000
C290        C  0.12283477  0.55105544  0.69704896     0.84800
N291        N  0.13558627  0.58190466  0.70370496    -0.75900
C292        C  0.13577335  0.60617434  0.67981470     0.84900
N293        N  0.12276740  0.59963654  0.64864848    -0.77600
Zn294      Zn  0.29904769  0.25802989  0.74076825     1.49700
Zn295      Zn  0.24367944  0.26058862  0.79908633     1.49400
Zn296      Zn  0.22250238  0.27845400  0.72275888     1.49100
Zn297      Zn  0.24195841  0.20201792  0.74319954     1.49500
O298        O  0.25157827  0.24997283  0.75128180    -1.82000
O299        O  0.32363141  0.27652268  0.78106796    -0.72600
O300        O  0.20901394  0.29685461  0.80449655    -0.72500
O301        O  0.25154869  0.30738178  0.69126630    -0.72000
O302        O  0.28562058  0.27848878  0.82200201    -0.72700
O303        O  0.30372159  0.29298215  0.70490596    -0.72300
O304        O  0.19368404  0.30991468  0.75223078    -0.72800
O305        O  0.20577697  0.19638719  0.70871935    -0.72200
O306        O  0.22529538  0.22006351  0.82357787    -0.73000
O307        O  0.19133900  0.24858344  0.69424542    -0.72400
O308        O  0.22436795  0.17912891  0.78524849    -0.72800
O309        O  0.28232661  0.17747337  0.72452443    -0.72800
O310        O  0.32237909  0.21631290  0.72245771    -0.72500
C311        C  0.31507646  0.28391824  0.81102175     0.79200
C312        C  0.19148511  0.31401315  0.78406877     0.79700
C313        C  0.28320417  0.31012524  0.68754447     0.78700
C314        C  0.18795512  0.21668628  0.69173093     0.79100
C315        C  0.21844672  0.19002187  0.81479202     0.80200
C316        C  0.31196332  0.18651804  0.71700530     0.79300
Zn317      Zn  0.50862564  0.99293987  0.95046247     1.49700
Zn318      Zn  0.45065174  0.98980780  0.00642751     1.49400
Zn319      Zn  0.52707018  0.97177222  0.02657812     1.49100
Zn320      Zn  0.50521869  0.04847011  0.00914940     1.49500
O321        O  0.49808014  0.00058884  0.99829893    -1.82000
O322        O  0.46835896  0.97430946  0.92572590    -0.72600
O323        O  0.44607936  0.95332926  0.04084130    -0.72500
O324        O  0.55844541  0.94315188  0.99708168    -0.72000
O325        O  0.42794649  0.97199243  0.96429512    -0.72700
O326        O  0.54505086  0.95839573  0.94487959    -0.72300
O327        O  0.49826885  0.94037849  0.05571277    -0.72800
O328        O  0.54029551  0.05348672  0.04478509    -0.72200
O329        O  0.42556751  0.02957745  0.02596392    -0.73000
O330        O  0.55588310  0.00117144  0.05754926    -0.72400
O331        O  0.46328191  0.07071937  0.02834556    -0.72800
O332        O  0.52335488  0.07381857  0.96885689    -0.72800
O333        O  0.52646261  0.03542203  0.92810901    -0.72500
C334        C  0.43866376  0.96670382  0.93457233     0.79200
C335        C  0.46665934  0.93626224  0.05820464     0.79700
C336        C  0.56245206  0.94102495  0.96524949     0.78700
C337        C  0.55806843  0.03298725  0.06157760     0.79100
C338        C  0.43396868  0.05942977  0.03400381     0.80200
C339        C  0.53139099  0.06515608  0.93906241     0.79300
C340        C  0.85961868  0.39284842  0.31620406     0.82300
N341        N  0.86008913  0.41727335  0.29247024    -0.76000
C342        C  0.87334532  0.44783550  0.29935015     0.84800
N343        N  0.88634057  0.45391726  0.33019557    -0.75900
C344        C  0.88632212  0.42977168  0.35417290     0.84900
N345        N  0.87283736  0.39890060  0.34737290    -0.77600
C346        C  0.86433380  0.60748485  0.18345189     0.82300
N347        N  0.87763467  0.60167443  0.15231264    -0.76000
C348        C  0.89018721  0.57052435  0.14496842     0.84800
N349        N  0.88916950  0.54579743  0.16838915    -0.75900
C350        C  0.87606754  0.55172596  0.19922538     0.84900
N351        N  0.86377629  0.58257003  0.20659748    -0.77600
C352        C  0.61238754  0.06632929  0.14107517     0.82300
N353        N  0.62457770  0.09781974  0.14731978    -0.76000
C354        C  0.63734497  0.10504178  0.17836159     0.84800
N355        N  0.63758740  0.08116346  0.20264669    -0.75900
C356        C  0.62561691  0.04993792  0.19634909     0.84900
N357        N  0.61313748  0.04261874  0.16553215    -0.77600
C358        C  0.64052755  0.89495483  0.31846981     0.82300
N359        N  0.63978199  0.91880759  0.29418988    -0.76000
C360        C  0.62648487  0.94952938  0.30037265     0.84800
N361        N  0.61376390  0.95632637  0.33124104    -0.75900
C362        C  0.61419990  0.93266748  0.35579465     0.84900
N363        N  0.62766672  0.90171023  0.34955439    -0.77600
C364        C  0.07231515  0.64424712  0.38695992     0.82300
N365        N  0.04841987  0.66838868  0.38642928    -0.76000
C366        C  0.05545478  0.69969120  0.37502425     0.84800
N367        N  0.08662034  0.70686423  0.36388622    -0.75900
C368        C  0.11075222  0.68297409  0.36386816     0.84900
N369        N  0.10378074  0.65133658  0.37547487    -0.77600
C370        C  0.89722607  0.81698539  0.36172303     0.82300
N371        N  0.92197801  0.79373681  0.36079592    -0.76000
C372        C  0.95254386  0.80057398  0.37385669     0.84800
N373        N  0.95829851  0.83100417  0.38805675    -0.75900
C374        C  0.93387674  0.85457086  0.38936417     0.84900
N375        N  0.90300914  0.84770477  0.37614458    -0.77600
C376        C  0.82048276  0.86289924  0.10508735     0.82300
N377        N  0.79594814  0.86427095  0.08161084    -0.76000
C378        C  0.80196250  0.87760072  0.05084151     0.84800
N379        N  0.83275686  0.88974492  0.04358142    -0.75900
C380        C  0.85750682  0.88884020  0.06678525     0.84900
N381        N  0.85156233  0.87529183  0.09783511    -0.77600
C382        C  0.64379791  0.88873572  0.93264498     0.82300
N383        N  0.66797236  0.88969570  0.95653195    -0.76000
C384        C  0.69892436  0.87736440  0.95011375     0.84800
N385        N  0.70563233  0.86381999  0.91960481    -0.75900
C386        C  0.68180012  0.86238672  0.89549622     0.84900
N387        N  0.65055622  0.87494800  0.90183127    -0.77600
Zn388      Zn  0.70378141  0.74345994  0.26011020     1.49700
Zn389      Zn  0.76292741  0.79850951  0.25716694     1.49400
Zn390      Zn  0.77935843  0.72193646  0.27954214     1.49100
Zn391      Zn  0.75910781  0.74004301  0.20218599     1.49500
O392        O  0.75151765  0.75077583  0.25000686    -1.82000
O393        O  0.68196025  0.78607922  0.27764680    -0.72600
O394        O  0.79950683  0.80359343  0.29143811    -0.72500
O395        O  0.74915430  0.69365954  0.31122667    -0.72000
O396        O  0.72319738  0.82381089  0.27594269    -0.72700
O397        O  0.69759185  0.70926226  0.29677177    -0.72300
O398        O  0.81128913  0.75136878  0.30801427    -0.72800
O399        O  0.79369873  0.70418004  0.19767610    -0.72200
O400        O  0.78078134  0.82083139  0.21460877    -0.73000
O401        O  0.80796622  0.69033365  0.25013250    -0.72400
O402        O  0.77773743  0.77987513  0.17653342    -0.72800
O403        O  0.71738499  0.72155762  0.17939798    -0.72800
O404        O  0.67890720  0.72473194  0.21976882    -0.72500
C405        C  0.69328390  0.81550888  0.28325254     0.79200
C406        C  0.81620314  0.78315168  0.30939793     0.79700
C407        C  0.71736027  0.69178338  0.31469147     0.78700
C408        C  0.81075330  0.68679488  0.21826133     0.79100
C409        C  0.78573205  0.80972933  0.18494598     0.80200
C410        C  0.68774038  0.71661624  0.19005544     0.79300
C411        C  0.36063990  0.60547623  0.31998759     0.82300
N412        N  0.37320431  0.59877749  0.35120706    -0.76000
C413        C  0.38517938  0.56735891  0.35811109     0.84800
N414        N  0.38461050  0.54323887  0.33405065    -0.75900
C415        C  0.37220240  0.54992726  0.30303002     0.84900
N416        N  0.36027849  0.58110558  0.29619634    -0.77600
C417        C  0.36173467  0.39322120  0.18246121     0.82300
N418        N  0.36185609  0.41719463  0.20665425    -0.76000
C419        C  0.37415189  0.44825906  0.20020761     0.84800
N420        N  0.38663907  0.45535306  0.16934645    -0.75900
C421        C  0.38713347  0.43155253  0.14496527     0.84900
N422        N  0.37450404  0.40022349  0.15133173    -0.77600
Zn423      Zn  0.45060304  0.48980698  0.99273811     1.49700
Zn424      Zn  0.50510879  0.54868652  0.98830919     1.49400
Zn425      Zn  0.50862302  0.49457823  0.04820580     1.49100
Zn426      Zn  0.52692924  0.47186895  0.97241133     1.49500
O427        O  0.49798285  0.50108828  0.00025709    -1.82000
O428        O  0.42514895  0.52937462  0.97336122    -0.72600
O429        O  0.52389125  0.57488779  0.02779414    -0.72500
O430        O  0.46857131  0.47664784  0.07383264    -0.72000
O431        O  0.46288883  0.57040250  0.96928428    -0.72700
O432        O  0.42843215  0.47185865  0.03520897    -0.72300
O433        O  0.52726926  0.53731090  0.06929197    -0.72800
O434        O  0.55731494  0.44290691  0.00245242    -0.72200
O435        O  0.53983556  0.55300692  0.95226889    -0.73000
O436        O  0.54435943  0.45961040  0.05431661    -0.72400
O437        O  0.55640974  0.50059106  0.94142585    -0.72800
O438        O  0.49818561  0.44075435  0.94311990    -0.72800
O439        O  0.44601100  0.45339635  0.95824480    -0.72500
C440        C  0.43344551  0.55903424  0.96452509     0.79200
C441        C  0.53229529  0.56676535  0.05765097     0.79700
C442        C  0.43915403  0.46783993  0.06514666     0.78700
C443        C  0.56120912  0.44132882  0.03432431     0.79100
C444        C  0.55814101  0.53228803  0.93637805     0.80200
C445        C  0.46659884  0.43654518  0.94069997     0.79300
Zn446      Zn  0.02675305  0.97236157  0.47351829     1.49700
Zn447      Zn  0.00508093  0.04863939  0.49189258     1.49400
Zn448      Zn  0.95070538  0.98925378  0.49558303     1.49100
Zn449      Zn  0.00937739  0.99348831  0.55050235     1.49500
O450        O  0.99816884  0.00072152  0.50270111    -1.82000
O451        O  0.05462760  0.00221707  0.44154995    -0.72600
O452        O  0.96276481  0.07026587  0.47335047    -0.72500
O453        O  0.94566049  0.95203514  0.46180506    -0.72000
O454        O  0.03917576  0.05424866  0.45540364    -0.72700
O455        O  0.99757949  0.94002475  0.44540690    -0.72300
O456        O  0.92535419  0.02877113  0.47576710    -0.72800
O457        O  0.96981287  0.97463587  0.57632764    -0.72200
O458        O  0.02399255  0.07422049  0.53174781    -0.73000
O459        O  0.92883968  0.97171873  0.53840826    -0.72400
O460        O  0.02790070  0.03590945  0.57248453    -0.72800
O461        O  0.04568118  0.95908279  0.55523202    -0.72800
O462        O  0.05873373  0.94427013  0.50276914    -0.72500
C463        C  0.05651571  0.03412658  0.43776390     0.79200
C464        C  0.93358271  0.05867528  0.46766193     0.79700
C465        C  0.96598787  0.93513438  0.44398137     0.78700
C466        C  0.94005833  0.96665246  0.56800453     0.79100
C467        C  0.03268025  0.06561153  0.56138364     0.80200
C468        C  0.06292076  0.94195761  0.53457319     0.79300
C469        C  0.35535914  0.89152293  0.43139482     0.82300
N470        N  0.33105462  0.89115786  0.45510500    -0.76000
C471        C  0.30040580  0.87847746  0.44805098     0.84800
N472        N  0.29407053  0.86587910  0.41706002    -0.75900
C473        C  0.31811368  0.86567395  0.39310028     0.84900
N474        N  0.34908206  0.87858354  0.40010650    -0.77600
C475        C  0.18102499  0.86256941  0.60459623     0.82300
N476        N  0.20485955  0.86293279  0.58042191    -0.76000
C477        C  0.19833139  0.87602964  0.54965511     0.84800
N478        N  0.16764332  0.88894269  0.54313662    -0.75900
C479        C  0.14356271  0.88892942  0.56706987     0.84900
N480        N  0.15009015  0.87566486  0.59809874    -0.77600
C481        C  0.43414890  0.35700628  0.88563232     0.82300
N482        N  0.45818573  0.33307010  0.88374274    -0.76000
C483        C  0.45123218  0.30234642  0.87077781     0.84800
N484        N  0.41993384  0.29563110  0.85956338    -0.75900
C485        C  0.39566953  0.31936879  0.86107020     0.84900
N486        N  0.40259958  0.35029873  0.87428147    -0.77600
C487        C  0.56863597  0.14433226  0.88658052     0.82300
N488        N  0.60000736  0.15044344  0.87434090    -0.76000
C489        C  0.60723036  0.18137930  0.86117267     0.84800
N490        N  0.58340535  0.20559963  0.86044055    -0.75900
C491        C  0.55230061  0.19945201  0.87242643     0.84900
N492        N  0.54507559  0.16879353  0.88541045    -0.77600
C493        C  0.10767103  0.18312322  0.63865893     0.82300
N494        N  0.08365351  0.20716849  0.63822222    -0.76000
C495        C  0.05297105  0.20053339  0.62538454     0.84800
N496        N  0.04637239  0.16959283  0.61278292    -0.75900
C497        C  0.07009374  0.14529651  0.61278880     0.84900
N498        N  0.10105150  0.15187316  0.62586501    -0.77600
C499        C  0.89532931  0.31834893  0.63709830     0.82300
N500        N  0.91984982  0.29486526  0.63731402    -0.76000
C501        C  0.95044459  0.30183535  0.62448720     0.84800
N502        N  0.95651641  0.33259007  0.61116152    -0.75900
C503        C  0.93224178  0.35635590  0.61041282     0.84900
N504        N  0.90134174  0.34940838  0.62351205    -0.77600
C505        C  0.68078171  0.36396687  0.10447885     0.82300
N506        N  0.64913798  0.37545866  0.09816493    -0.76000
C507        C  0.64202735  0.38949665  0.06756748     0.84800
N508        N  0.66619695  0.39173397  0.04383342    -0.75900
C509        C  0.69754874  0.38054206  0.05021843     0.84900
N510        N  0.70471076  0.36675189  0.08054600    -0.77600
C511        C  0.81799781  0.36516883  0.89499686     0.82300
N512        N  0.84941997  0.37667455  0.90201430    -0.76000
C513        C  0.85578172  0.39069792  0.93271321     0.84800
N514        N  0.83107093  0.39296416  0.95587684    -0.75900
C515        C  0.79989288  0.38160337  0.94889693     0.84900
N516        N  0.79352562  0.36773721  0.91841732    -0.82400
Zn517      Zn  0.70417588  0.24364711  0.73990305     1.49700
Zn518      Zn  0.75860557  0.24074158  0.79873103     1.49400
Zn519      Zn  0.78054966  0.22259678  0.72221544     1.49100
Zn520      Zn  0.76238444  0.29910783  0.74313581     1.49500
O521        O  0.75166739  0.25131180  0.75077298    -1.82000
O522        O  0.67870830  0.22511067  0.77989035    -0.72600
O523        O  0.79378184  0.20538050  0.80436816    -0.72500
O524        O  0.75126664  0.19316606  0.69104658    -0.72000
O525        O  0.71667540  0.22178228  0.82077075    -0.72700
O526        O  0.69928561  0.20875037  0.70397255    -0.72300
O527        O  0.80961919  0.19195216  0.75231095    -0.72800
O528        O  0.79889369  0.30439505  0.70892222    -0.72200
O529        O  0.77601374  0.28114065  0.82419053    -0.73000
O530        O  0.81162709  0.25219560  0.69303320    -0.72400
O531        O  0.77948730  0.32176431  0.78570781    -0.72800
O532        O  0.72268504  0.32397157  0.72354157    -0.72800
O533        O  0.68207966  0.28567081  0.72098455    -0.72500
C534        C  0.68718187  0.21682701  0.80966836     0.79200
C535        C  0.81171502  0.18836532  0.78423408     0.79700
C536        C  0.71958138  0.19099628  0.68699265     0.78700
C537        C  0.81580997  0.28405323  0.69109415     0.79100
C538        C  0.78389615  0.31097070  0.81557807     0.80200
C539        C  0.69310162  0.31522809  0.71542782     0.79300
C540        C  0.10598304  0.81812630  0.86071476     0.82300
N541        N  0.08184766  0.79430307  0.86028139    -0.76000
C542        C  0.05100526  0.80080236  0.87271382     0.84800
N543        N  0.04426866  0.83151261  0.88586398    -0.75900
C544        C  0.06811006  0.85569750  0.88678776     0.84900
N545        N  0.09930217  0.84916982  0.87408622    -0.77600
C546        C  0.89503761  0.68065781  0.85952928     0.82300
N547        N  0.90186170  0.64966860  0.87297679    -0.76000
C548        C  0.93317084  0.64319616  0.88541502     0.84800
N549        N  0.95695150  0.66739064  0.88426755    -0.75900
C550        C  0.95008472  0.69806546  0.87114159     0.84900
N551        N  0.91913209  0.70456166  0.85891521    -0.77600
C552        C  0.88894572  0.06951255  0.85634960     0.82300
N553        N  0.88657800  0.04526059  0.83258940    -0.76000
C554        C  0.87316480  0.05212132  0.80207853     0.84800
N555        N  0.86195812  0.08353039  0.79532219    -0.75900
C556        C  0.86386755  0.10807787  0.81880707     0.84900
N557        N  0.87748186  0.10126762  0.84965707    -0.77600
C558        C  0.88650328  0.93086856  0.64708372     0.82300
N559        N  0.87374641  0.89965480  0.65374894    -0.76000
C560        C  0.85965005  0.89347327  0.68447710     0.84800
N561        N  0.85855405  0.91810970  0.70793476    -0.75900
C562        C  0.87106099  0.94902186  0.70121843     0.84900
N563        N  0.88494967  0.95526043  0.67079011    -0.77600
Zn564      Zn  0.70054318  0.75629705  0.76190855     1.49700
Zn565      Zn  0.75899354  0.70092465  0.75750184     1.49400
Zn566      Zn  0.75467439  0.76002904  0.70284237     1.49100
Zn567      Zn  0.77692256  0.77704686  0.77969012     1.49500
O568        O  0.74800744  0.74880095  0.75070322    -1.82000
O569        O  0.67866596  0.71384273  0.78000571    -0.72600
O570        O  0.77651580  0.67906353  0.71472350    -0.72500
O571        O  0.71239185  0.77869128  0.68106832    -0.72000
O572        O  0.71939776  0.67566337  0.77658120    -0.72700
O573        O  0.67486042  0.77554017  0.72233643    -0.72300
O574        O  0.77324671  0.72031451  0.67690894    -0.72800
O575        O  0.80507441  0.80874747  0.75001311    -0.72200
O576        O  0.79585894  0.69509011  0.79127614    -0.73000
O577        O  0.78902846  0.79621987  0.69778306    -0.72400
O578        O  0.80903674  0.74705048  0.80749817    -0.72800
O579        O  0.74771025  0.80563801  0.81179483    -0.72800
O580        O  0.69568239  0.79059636  0.79846572    -0.72500
C581        C  0.68979858  0.68418886  0.78488139     0.79200
C582        C  0.78140500  0.69043269  0.68515846     0.79700
C583        C  0.68305503  0.78386033  0.69249806     0.78700
C584        C  0.80681341  0.81308233  0.71817468     0.79100
C585        C  0.81331656  0.71516180  0.80886509     0.80200
C586        C  0.71602251  0.80792698  0.81582110     0.79300
Zn587      Zn  0.95334609  0.51110373  0.99355437     1.49700
Zn588      Zn  0.02920432  0.52869659  0.97149348     1.49400
Zn589      Zn  0.01175722  0.50750021  0.04855524     1.49100
Zn590      Zn  0.00828877  0.45213614  0.99025515     1.49500
O591        O  0.00089518  0.50007660  0.00072118    -1.82000
O592        O  0.94766415  0.54680835  0.95832371    -0.72600
O593        O  0.06060502  0.55758255  0.00105366    -0.72500
O594        O  0.97219715  0.52663536  0.07397196    -0.72000
O595        O  0.99945506  0.56009986  0.94256377    -0.72700
O596        O  0.93157431  0.52999856  0.03574978    -0.72300
O597        O  0.04777343  0.54201472  0.05336848    -0.72800
O598        O  0.02744945  0.42704870  0.03026632    -0.72200
O599        O  0.05749451  0.49873302  0.93978917    -0.73000
O600        O  0.02989734  0.46524983  0.07117641    -0.72400
O601        O  0.04201521  0.44660929  0.95333637    -0.72800
O602        O  0.96589645  0.42970291  0.97309167    -0.72800
O603        O  0.92803906  0.47079153  0.97597539    -0.72500
C604        C  0.96773022  0.56394382  0.94045337     0.79200
C605        C  0.06469556  0.55968038  0.03292787     0.79700
C606        C  0.94264292  0.53503515  0.06538244     0.78700
C607        C  0.03522632  0.43562120  0.06014699     0.79100
C608        C  0.05934943  0.46682697  0.93578867     0.80200
C609        C  0.93636944  0.44081669  0.96831806     0.79300
C610        C  0.36435205  0.10678627  0.68167269     0.82300
N611        N  0.36295820  0.08229306  0.70531296    -0.76000
C612        C  0.37490220  0.05106704  0.69877689     0.84800
N613        N  0.38849459  0.04439818  0.66827549    -0.75900
C614        C  0.39029972  0.06863717  0.64438922     0.84900
N615        N  0.37812585  0.10011607  0.65092246    -0.77600
C616        C  0.36064310  0.89273931  0.81764585     0.82300
N617        N  0.37347529  0.89953510  0.84876869    -0.76000
C618        C  0.38554001  0.93097312  0.85548090     0.84800
N619        N  0.38459624  0.95505112  0.83140291    -0.75900
C620        C  0.37199982  0.94824573  0.80051125     0.84900
N621        N  0.36015216  0.91704309  0.79374361    -0.77600
C622        C  0.18193559  0.63895630  0.10493436     0.82300
N623        N  0.20563870  0.63901111  0.08056818    -0.76000
C624        C  0.19881043  0.62658865  0.04957985     0.84800
N625        N  0.16808829  0.61389717  0.04303772    -0.75900
C626        C  0.14417669  0.61339168  0.06706532     0.84900
N627        N  0.15091551  0.62599697  0.09835452    -0.77600
C628        C  0.31460711  0.63395205  0.89008681     0.82300
N629        N  0.29139560  0.63441984  0.91481255    -0.76000
C630        C  0.29875028  0.62274967  0.94592964     0.84800
N631        N  0.32967480  0.61035699  0.95231365    -0.75900
C632        C  0.35319444  0.60944849  0.92780699     0.84900
N633        N  0.34584961  0.62142623  0.89640222    -0.77600
Zn634      Zn  0.23929891  0.79719864  0.75559908     1.49700
Zn635      Zn  0.24210840  0.73882582  0.69976540     1.49400
Zn636      Zn  0.29655426  0.74109836  0.75867674     1.49100
Zn637      Zn  0.21974835  0.72096950  0.77610078     1.49500
O638        O  0.24917412  0.74927904  0.74774098    -1.82000
O639        O  0.22157631  0.81996218  0.71348936    -0.72600
O640        O  0.28412755  0.72011905  0.67751290    -0.72500
O641        O  0.31956043  0.78280284  0.77727621    -0.72000
O642        O  0.22415569  0.77940538  0.67485334    -0.72700
O643        O  0.27957693  0.82172780  0.77412802    -0.72300
O644        O  0.32169837  0.72230324  0.71883017    -0.72800
O645        O  0.24866287  0.69094923  0.80696065    -0.72200
O646        O  0.20725322  0.70304129  0.69399384    -0.73000
O647        O  0.30088228  0.70586275  0.79419093    -0.72400
O648        O  0.19071274  0.69030508  0.74598194    -0.72800
O649        O  0.18893221  0.75110448  0.80526399    -0.72800
O650        O  0.20340929  0.80310974  0.79029673    -0.72500
C651        C  0.21649361  0.80923735  0.68372514     0.79200
C652        C  0.31341965  0.71453143  0.68889240     0.79700
C653        C  0.30907527  0.81267837  0.78219781     0.78700
C654        C  0.28031619  0.68817566  0.81087082     0.79100
C655        C  0.18909518  0.68622181  0.71409438     0.80200
C656        C  0.18572346  0.78306912  0.80767384     0.79300
C657        C  0.30562186  0.64907276  0.85842156    -0.11200
C658        C  0.29380208  0.66530141  0.83556114    -0.12700
C659        C  0.25862418  0.62666064  0.03171021    -0.11200
C660        C  0.22452513  0.62638036  0.02320999     0.10900
C661        C  0.21504832  0.62511065  0.98921404    -0.11200
C662        C  0.23926719  0.62416483  0.96407894    -0.11200
C663        C  0.27335480  0.62390606  0.97255947     0.10900
C664        C  0.28288777  0.62509989  0.00654381    -0.11200
H665        H  0.26651463  0.62748359  0.05777943     0.14900
H666        H  0.18888682  0.62503440  0.98201571     0.14900
H667        H  0.23130965  0.62317814  0.93803216     0.14900
H668        H  0.30907396  0.62517596  0.01364298     0.14900
C669        C  0.33074357  0.83714270  0.79774809    -0.11200
C670        C  0.34608259  0.86064482  0.80939440    -0.12700
C671        C  0.37340591  0.96560445  0.74026089    -0.11200
C672        C  0.37174385  0.97443839  0.77441938     0.10900
C673        C  0.37051746  0.00854215  0.78353234    -0.11200
C674        C  0.37099338  0.03347262  0.75885750    -0.11200
C675        C  0.37335761  0.02469478  0.72470917     0.10900
C676        C  0.37454237  0.99055985  0.71559820    -0.11200
H677        H  0.37452363  0.93944043  0.73266087     0.14900
H678        H  0.36903172  0.01593400  0.80973900     0.14900
H679        H  0.37012598  0.05961650  0.76655159     0.14900
H680        H  0.37617408  0.98314060  0.68941145     0.14900
C681        C  0.08979025  0.58180333  0.04678739    -0.11200
C682        C  0.11274170  0.59778561  0.05860380    -0.12700
C683        C  0.84444882  0.86171685  0.69287902    -0.11200
C684        C  0.82867052  0.83843495  0.70439649    -0.12700
C685        C  0.87049223  0.99177019  0.78573243    -0.11200
C686        C  0.87127593  0.02579990  0.77631667     0.10900
C687        C  0.87090433  0.03448963  0.74208258    -0.11200
C688        C  0.87069485  0.00944471  0.71757335    -0.11200
C689        C  0.87019968  0.97540804  0.72698603     0.10900
C690        C  0.86963051  0.96673975  0.76122389    -0.11200
H691        H  0.87050969  0.98451686  0.81202114     0.14900
H692        H  0.87156449  0.06060475  0.73424843     0.14900
H693        H  0.87089334  0.01668898  0.69128341     0.14900
H694        H  0.86932430  0.94061763  0.76905673     0.14900
C695        C  0.94184253  0.61185555  0.90170900    -0.11200
C696        C  0.95367272  0.58898383  0.91807858    -0.12700
C697        C  0.86300978  0.68913541  0.84489075    -0.11200
C698        C  0.83932430  0.70095908  0.82987871    -0.12700
C699        C  0.16069454  0.79748564  0.82967932    -0.11200
C700        C  0.13767916  0.80959419  0.84546338    -0.12700
C701        C  0.99112274  0.78337936  0.87281395    -0.11200
C702        C  0.02513511  0.77458753  0.87199679     0.10900
C703        C  0.03430341  0.74049737  0.87045113    -0.11200
C704        C  0.00983569  0.71554655  0.87023026    -0.11200
C705        C  0.97583965  0.72435141  0.87090295     0.10900
C706        C  0.96663795  0.75843318  0.87193433    -0.11200
H707        H  0.98345202  0.80951381  0.87382098     0.14900
H708        H  0.06039928  0.73308196  0.86990797     0.14900
H709        H  0.01748587  0.68940041  0.86927961     0.14900
H710        H  0.94052682  0.76578055  0.87266022     0.14900
C711        C  0.84958503  0.14028780  0.81034505    -0.11200
C712        C  0.83396475  0.16353087  0.79844803    -0.12700
C713        C  0.88795033  0.40446078  0.94133910    -0.11200
C714        C  0.91155279  0.41938583  0.95312200    -0.12700
C715        C  0.81000559  0.34875401  0.86371501    -0.11200
C716        C  0.79874770  0.33271432  0.84046405    -0.12700
C717        C  0.71480981  0.38023057  0.99007062    -0.11200
C718        C  0.72346891  0.38266779  0.02420507     0.10900
C719        C  0.75717011  0.38621414  0.03337575    -0.11200
C720        C  0.78197257  0.38683681  0.00875484    -0.11200
C721        C  0.77348581  0.38324677  0.97463072     0.10900
C722        C  0.73966824  0.38019185  0.96546144    -0.11200
H723        H  0.68891079  0.37739732  0.98248050     0.14900
H724        H  0.76432409  0.38843693  0.05958315     0.14900
H725        H  0.80785189  0.38923772  0.01653592     0.14900
H726        H  0.73243641  0.37760942  0.93931565     0.14900
C727        C  0.86395179  0.30962239  0.65284534    -0.11200
C728        C  0.84097523  0.29792140  0.66894647    -0.12700
C729        C  0.03550812  0.26080564  0.62627157    -0.11200
C730        C  0.02686602  0.22656828  0.62532873     0.10900
C731        C  0.99299019  0.21729382  0.62423629    -0.11200
C732        C  0.96812376  0.24185394  0.62432239    -0.11200
C733        C  0.97675167  0.27606882  0.62484647     0.10900
C734        C  0.01061250  0.28541051  0.62568367    -0.11200
H735        H  0.06149155  0.26856413  0.62700585     0.14900
H736        H  0.98568933  0.19104689  0.62367363     0.14900
H737        H  0.94214430  0.23407969  0.62350948     0.14900
H738        H  0.01780442  0.31168848  0.62628185     0.14900
C739        C  0.63921706  0.18919002  0.84637837    -0.11200
C740        C  0.66257189  0.20096962  0.83098639    -0.12700
C741        C  0.46800442  0.24199608  0.87026349    -0.11200
C742        C  0.47713538  0.27610322  0.87005928     0.10900
C743        C  0.51116214  0.28489283  0.87009133    -0.11200
C744        C  0.53568511  0.25991405  0.87037440    -0.11200
C745        C  0.52652477  0.22581265  0.87126588     0.10900
C746        C  0.49250325  0.21704962  0.87118919    -0.11200
H747        H  0.44191128  0.23458641  0.87041821     0.14900
H748        H  0.51880360  0.31104683  0.86979511     0.14900
H749        H  0.56178786  0.26729211  0.87050422     0.14900
H750        H  0.48482490  0.19090960  0.87163959     0.14900
C751        C  0.20103207  0.83106133  0.65929736    -0.11200
C752        C  0.18925027  0.84694791  0.63620483    -0.12700
C753        C  0.28309718  0.87478794  0.50802235    -0.11200
C754        C  0.27433553  0.87791111  0.47398222     0.10900
C755        C  0.24049387  0.88021615  0.46486353    -0.11200
C756        C  0.21572647  0.87983272  0.48953636    -0.11200
C757        C  0.22443455  0.87647001  0.52361752     0.10900
C758        C  0.25831230  0.87373495  0.53264994    -0.11200
H759        H  0.30908868  0.87270956  0.51554738     0.14900
H760        H  0.23323372  0.88275456  0.43871334     0.14900
H761        H  0.18976641  0.88184304  0.48190177     0.14900
H762        H  0.26569542  0.87121702  0.55876142     0.14900
C763        C  0.06152634  0.11341205  0.59774750    -0.11200
C764        C  0.04904783  0.09022417  0.58246202    -0.12700
C765        C  0.11202935  0.90445807  0.55895324    -0.11200
C766        C  0.08857388  0.92024177  0.54794622    -0.12700
C767        C  0.91884894  0.95086953  0.59281259    -0.11200
C768        C  0.90291301  0.93893156  0.61580482    -0.12700
C769        C  0.40865898  0.57983721  0.94819619    -0.11200
C770        C  0.38515733  0.59474191  0.93602339    -0.12700
C771        C  0.58626777  0.41931467  0.04845732    -0.11200
C772        C  0.60980253  0.40377369  0.05971237    -0.12700
C773        C  0.45342139  0.41135927  0.91828662    -0.11200
C774        C  0.44250834  0.38824382  0.90185871    -0.12700
C775        C  0.40239188  0.44023507  0.11325837    -0.11200
C776        C  0.41786467  0.45223105  0.08998147    -0.12700
C777        C  0.36677130  0.53247214  0.24290585    -0.11200
C778        C  0.37233706  0.52377811  0.27674694     0.10900
C779        C  0.37844219  0.48996127  0.28515887    -0.11200
C780        C  0.37876252  0.46529381  0.26020967    -0.11200
C781        C  0.37362362  0.47415743  0.22644198     0.10900
C782        C  0.36774169  0.50788088  0.21791259    -0.11200
H783        H  0.36205634  0.55832407  0.23564023     0.14900
H784        H  0.38277456  0.48249861  0.31101941     0.14900
H785        H  0.38349589  0.43936277  0.26722041     0.14900
H786        H  0.36345350  0.51512986  0.19197266     0.14900
C787        C  0.69047865  0.84611510  0.86422247    -0.11200
C788        C  0.70226674  0.82995149  0.84124095    -0.12700
C789        C  0.80124067  0.83114736  0.16008134    -0.11200
C790        C  0.81278143  0.84693424  0.13674625    -0.12700
C791        C  0.74168312  0.87925422  0.03475390    -0.11200
C792        C  0.77550028  0.87836057  0.02524065     0.10900
C793        C  0.78395244  0.87784092  0.99098148    -0.11200
C794        C  0.75896629  0.87754558  0.96656617    -0.11200
C795        C  0.72512976  0.87840570  0.97601316     0.10900
C796        C  0.71665334  0.87962358  0.01027710    -0.11200
H797        H  0.73462629  0.87987257  0.06106553     0.14900
H798        H  0.80988670  0.87701201  0.98305311     0.14900
H799        H  0.76613785  0.87678978  0.94028913     0.14900
H800        H  0.69070208  0.88018970  0.01815967     0.14900
C801        C  0.95249234  0.90925782  0.42230616    -0.11200
C802        C  0.94150455  0.88590888  0.40608592    -0.12700
C803        C  0.86559115  0.80824473  0.34642258    -0.11200
C804        C  0.84207374  0.79676672  0.33092208    -0.12700
C805        C  0.03761197  0.75953861  0.37877956    -0.11200
C806        C  0.02932048  0.72554340  0.37426347     0.10900
C807        C  0.99586079  0.71636095  0.36895234    -0.11200
C808        C  0.97094776  0.74088010  0.36816921    -0.11200
C809        C  0.97905831  0.77488308  0.37333961     0.10900
C810        C  0.01261747  0.78402229  0.37864143    -0.11200
H811        H  0.06333093  0.76709583  0.38299944     0.14900
H812        H  0.98902311  0.69026007  0.36510390     0.14900
H813        H  0.94527807  0.73311633  0.36408260     0.14900
H814        H  0.01958116  0.81007136  0.38255979     0.14900
C815        C  0.67197969  0.84021668  0.29882217    -0.11200
C816        C  0.65625333  0.86339698  0.31052965    -0.12700
C817        C  0.62952824  0.99021363  0.21460686    -0.11200
C818        C  0.62582619  0.02431570  0.22289127     0.10900
C819        C  0.62219823  0.03378452  0.25670474    -0.11200
C820        C  0.62196721  0.00940648  0.28193682    -0.11200
C821        C  0.62604135  0.97526303  0.27374631     0.10900
C822        C  0.62995882  0.96588801  0.23987272    -0.11200
H823        H  0.63253409  0.98243005  0.18865085     0.14900
H824        H  0.61909357  0.05999826  0.26357661     0.14900
H825        H  0.61901500  0.01732775  0.30784887     0.14900
H826        H  0.63305173  0.93972260  0.23283894     0.14900
C827        C  0.92149006  0.55108389  0.09001108    -0.11200
C828        C  0.90586313  0.56289571  0.11325031    -0.12700
C829        C  0.84904963  0.63897554  0.19253686    -0.11200
C830        C  0.83302356  0.66182863  0.20452279    -0.12700
C831        C  0.87513458  0.50822024  0.28324492    -0.11200
C832        C  0.87370157  0.47427834  0.27361078     0.10900
C833        C  0.87291923  0.46587062  0.23930229    -0.11200
C834        C  0.87404670  0.49110409  0.21495517    -0.11200
C835        C  0.87527444  0.52503751  0.22465500     0.10900
C836        C  0.87560493  0.53342607  0.25894622    -0.11200
H837        H  0.87558011  0.51531094  0.30957310     0.14900
H838        H  0.87194113  0.43982024  0.23130886     0.14900
H839        H  0.87356517  0.48412160  0.18859875     0.14900
H840        H  0.87668334  0.55946234  0.26698275     0.14900
C841        C  0.58041478  0.04652760  0.08657276    -0.11200
C842        C  0.59663880  0.05770151  0.10968317    -0.12700
C843        C  0.61187901  0.90381878  0.94061701    -0.11200
C844        C  0.58818727  0.91939133  0.95159506    -0.12700
C845        C  0.41695263  0.95115445  0.91014124    -0.11200
C846        C  0.40110168  0.93934888  0.88706235    -0.12700
C847        C  0.54725300  0.08974846  0.91762622    -0.11200
C848        C  0.55959197  0.11281409  0.90207403    -0.12700
C849        C  0.13919264  0.19141280  0.65424390    -0.11200
C850        C  0.16252095  0.20277501  0.67001510    -0.12700
C851        C  0.33389870  0.16219355  0.70146780    -0.11200
C852        C  0.34956488  0.13887589  0.68978755    -0.12700
C853        C  0.33964333  0.29936588  0.83258528    -0.11200
C854        C  0.36334858  0.31105761  0.84743236    -0.12700
C855        C  0.16708762  0.66108792  0.69995412    -0.11200
C856        C  0.15125585  0.63786572  0.68826939    -0.12700
C857        C  0.09607119  0.44085893  0.88654603    -0.11200
C858        C  0.08071349  0.45273488  0.91002144    -0.12700
C859        C  0.16942271  0.33943633  0.79773634    -0.11200
C860        C  0.15324304  0.36269689  0.80894216    -0.12700
C861        C  0.12363941  0.50910646  0.78205542    -0.11200
C862        C  0.12290505  0.47495965  0.77305461     0.10900
C863        C  0.12208764  0.46592246  0.73893015    -0.11200
C864        C  0.12171193  0.49073463  0.71413309    -0.11200
C865        C  0.12282504  0.52489399  0.72313434     0.10900
C866        C  0.12392643  0.53388884  0.75726820    -0.11200
H867        H  0.12446514  0.51664168  0.80824643     0.14900
H868        H  0.12135690  0.43970749  0.73144340     0.14900
H869        H  0.12098439  0.48319145  0.68794327     0.14900
H870        H  0.12463351  0.56008277  0.76482605     0.14900
C871        C  0.20301561  0.16812064  0.83908625    -0.11200
C872        C  0.19118195  0.15222215  0.86209440    -0.12700
C873        C  0.38602760  0.09564296  0.06253157    -0.11200
C874        C  0.40945000  0.08056199  0.05038552    -0.12700
C875        C  0.28273373  0.11793778  0.99181192    -0.11200
C876        C  0.27338844  0.12095587  0.02576026     0.10900
C877        C  0.23938029  0.12397797  0.03410926    -0.11200
C878        C  0.21512531  0.12402031  0.00893458    -0.11200
C879        C  0.22453676  0.12165982  0.97500844     0.10900
C880        C  0.25848783  0.11862207  0.96658439    -0.11200
H881        H  0.30880957  0.11565333  0.98469554     0.14900
H882        H  0.23149464  0.12617921  0.06009338     0.14900
H883        H  0.18904106  0.12651902  0.01597143     0.14900
H884        H  0.26623573  0.11652691  0.94054508     0.14900
C885        C  0.41647914  0.54788076  0.41301968    -0.11200
C886        C  0.40051171  0.55921906  0.38981888    -0.12700
C887        C  0.65624986  0.36267356  0.68690574    -0.11200
C888        C  0.67187291  0.33958262  0.69904136    -0.12700
C889        C  0.58192032  0.45251376  0.58780218    -0.11200
C890        C  0.59809640  0.44106304  0.61085819    -0.12700
C891        C  0.65345718  0.63592166  0.81242386    -0.11200
C892        C  0.66870391  0.65942714  0.80070042    -0.12700
C893        C  0.59692182  0.55652281  0.88820307    -0.11200
C894        C  0.58060951  0.54544050  0.91129113    -0.12700
C895        C  0.62700226  0.46483754  0.75798296    -0.11200
C896        C  0.62722509  0.47461232  0.72403807     0.10900
C897        C  0.62723449  0.50894189  0.71575087    -0.11200
C898        C  0.62735311  0.53318121  0.74108565    -0.11200
C899        C  0.62678645  0.52341374  0.77504167     0.10900
C900        C  0.62644794  0.48907280  0.78330901    -0.11200
H901        H  0.62681251  0.43846709  0.76494145     0.14900
H902        H  0.62756078  0.51703484  0.68971063     0.14900
H903        H  0.62745473  0.55954529  0.73410626     0.14900
H904        H  0.62615025  0.48095119  0.80933935     0.14900
C905        C  0.54795474  0.41178329  0.41760610    -0.11200
C906        C  0.55963172  0.38857030  0.40186622    -0.12700
C907        C  0.53297158  0.24117778  0.37775839    -0.11200
C908        C  0.52406120  0.27529318  0.37631979     0.10900
C909        C  0.49011904  0.28437109  0.37529475    -0.11200
C910        C  0.46542815  0.25959756  0.37507530    -0.11200
C911        C  0.47434192  0.22544776  0.37654772     0.10900
C912        C  0.50829757  0.21644716  0.37818644    -0.11200
H913        H  0.55901715  0.23362711  0.37880412     0.14900
H914        H  0.48270019  0.31057184  0.37405865     0.14900
H915        H  0.43939347  0.26716810  0.37399523     0.14900
H916        H  0.51583055  0.19027497  0.37926460     0.14900
C917        C  0.29666606  0.33237447  0.66231361    -0.11200
C918        C  0.30815094  0.34857786  0.63928783    -0.12700
C919        C  0.41177983  0.41795924  0.55077342    -0.11200
C920        C  0.38821210  0.40302601  0.56268402    -0.12700
C921        C  0.28348803  0.38068572  0.49307927    -0.11200
C922        C  0.27447797  0.38132566  0.52721362     0.10900
C923        C  0.24051565  0.38223075  0.53614464    -0.11200
C924        C  0.21590448  0.38220162  0.51130423    -0.11200
C925        C  0.22487653  0.38061729  0.47718363     0.10900
C926        C  0.25885334  0.38000277  0.46823922    -0.11200
H927        H  0.30955193  0.37986858  0.48559998     0.14900
H928        H  0.23298798  0.38294984  0.56232257     0.14900
H929        H  0.18984788  0.38263028  0.51884002     0.14900
H930        H  0.26637190  0.37901989  0.44206949     0.14900
C931        C  0.38701055  0.90666644  0.44028954    -0.11200
C932        C  0.41057455  0.92184570  0.45207797    -0.12700
C933        C  0.42205513  0.04892217  0.58955693    -0.11200
C934        C  0.40633401  0.06024182  0.61300129    -0.12700
C935        C  0.59902263  0.94092851  0.38759251    -0.11200
C936        C  0.58340947  0.95221336  0.41108527    -0.12700
C937        C  0.45280810  0.08886943  0.41827084    -0.11200
C938        C  0.44056788  0.11187015  0.40270905    -0.12700
C939        C  0.36182782  0.68651499  0.65320824    -0.11200
C940        C  0.33808002  0.69846671  0.66782557    -0.12700
C941        C  0.44313946  0.61069460  0.59939888    -0.11200
C942        C  0.45488181  0.58786806  0.58309344    -0.12700
C943        C  0.65834091  0.80006494  0.67149888    -0.11200
C944        C  0.63502499  0.81211889  0.65620421    -0.12700
C945        C  0.54534187  0.91069679  0.58133626    -0.11200
C946        C  0.55633097  0.88757602  0.59781004    -0.12700
C947        C  0.48884650  0.78323462  0.62976284    -0.11200
C948        C  0.52300579  0.77502387  0.62990082     0.10900
C949        C  0.53279387  0.74109456  0.63042796    -0.11200
C950        C  0.50877897  0.71571042  0.63030014    -0.11200
C951        C  0.47461093  0.72389214  0.63026872     0.10900
C952        C  0.46480746  0.75783514  0.63028342    -0.11200
H953        H  0.48073908  0.80925565  0.62952442     0.14900
H954        H  0.55902719  0.73416118  0.63037345     0.14900
H955        H  0.51693952  0.68970527  0.63041740     0.14900
H956        H  0.43857287  0.76475437  0.63008117     0.14900
C957        C  0.29477884  0.16812752  0.16182899    -0.11200
C958        C  0.30638114  0.15214717  0.13863455    -0.12700
C959        C  0.33042065  0.33832059  0.20223838    -0.11200
C960        C  0.34626722  0.36144190  0.19043818    -0.12700
C961        C  0.33874789  0.20060884  0.33230114    -0.11200
C962        C  0.36224165  0.18936237  0.34776404    -0.12700
C963        C  0.20146608  0.33014064  0.34262805    -0.11200
C964        C  0.18988784  0.34619614  0.36574403    -0.12700
C965        C  0.20220983  0.66954641  0.16024765    -0.11200
C966        C  0.19037913  0.65403895  0.13685621    -0.12700
C967        C  0.16534321  0.70351342  0.33301967    -0.11200
C968        C  0.14245437  0.69167679  0.34903103    -0.12700
C969        C  0.33198681  0.66139114  0.29930100    -0.11200
C970        C  0.34667554  0.63769458  0.31135339    -0.12700
C971        C  0.31016722  0.84977785  0.36142152    -0.11200
C972        C  0.29888941  0.83345062  0.33828871    -0.12700
C973        C  0.16977617  0.83949574  0.20402938    -0.11200
C974        C  0.15333922  0.86242430  0.19259216    -0.12700
C975        C  0.09313321  0.06015979  0.38857221    -0.11200
C976        C  0.07788164  0.04832685  0.41211080    -0.12700
C977        C  0.16805161  0.15948302  0.29888051    -0.11200
C978        C  0.15155947  0.13649664  0.31017651    -0.12700
C979        C  0.12144642  0.00833375  0.21631060    -0.11200
C980        C  0.11894578  0.97436925  0.22567039     0.10900
C981        C  0.11527672  0.96584821  0.25970677    -0.11200
C982        C  0.11431902  0.99098424  0.28413107    -0.11200
C983        C  0.11772240  0.02495601  0.27491059     0.10900
C984        C  0.12116733  0.03344685  0.24078766    -0.11200
H985        H  0.12440263  0.01541465  0.19013839     0.14900
H986        H  0.11303965  0.93977978  0.26738922     0.14900
H987        H  0.11168345  0.98374594  0.31028866     0.14900
H988        H  0.12365711  0.05946047  0.23301744     0.14900
C989        C  0.56107327  0.61458047  0.09404203    -0.11200
C990        C  0.54858602  0.59162204  0.07845130    -0.12700
C991        C  0.64017560  0.68961558  0.15232068    -0.11200
C992        C  0.66335726  0.70106204  0.16823717    -0.12700
C993        C  0.44239437  0.88795338  0.09702602    -0.11200
C994        C  0.45340244  0.91099681  0.08052810    -0.12700
C995        C  0.34056688  0.79940905  0.16855316    -0.11200
C996        C  0.36412847  0.81110967  0.15347591    -0.12700
C997        C  0.51173133  0.78537624  0.12864613    -0.11200
C998        C  0.47777521  0.77636148  0.12977428     0.10900
C999        C  0.46888214  0.74219393  0.13051440    -0.11200
C1000       C  0.49353097  0.71740635  0.12925465    -0.11200
C1001       C  0.52745374  0.72642586  0.12793642     0.10900
C1002       C  0.53640951  0.76057262  0.12806599    -0.11200
H1003       H  0.51920354  0.81157731  0.12822188     0.14900
H1004       H  0.44285038  0.73460535  0.13125936     0.14900
H1005       H  0.48607604  0.69119623  0.12944763     0.14900
H1006       H  0.56245097  0.76809575  0.12698446     0.14900
C1007       C  0.05058547  0.58873659  0.41589969    -0.11200
C1008       C  0.06340493  0.61202334  0.40105747    -0.12700
C1009       C  0.07864734  0.54838510  0.58704038    -0.11200
C1010       C  0.09433745  0.56008266  0.61033705    -0.12700
C1011       C  0.08782316  0.41939298  0.45262076    -0.11200
C1012       C  0.11148240  0.40381479  0.44176343    -0.12700
C1013       C  0.90196492  0.43778810  0.38585135    -0.11200
C1014       C  0.91779393  0.45014597  0.40869999    -0.12700
C1015       C  0.95122467  0.41143948  0.57841781    -0.11200
C1016       C  0.94004757  0.38800600  0.59437800    -0.12700
C1017       C  0.69068066  0.65412292  0.36308307    -0.11200
C1018       C  0.70284869  0.67010712  0.34011020    -0.12700
C1019       C  0.58855031  0.58112224  0.45178480    -0.11200
C1020       C  0.61195753  0.59661591  0.44004184    -0.12700
C1021       C  0.80954685  0.65387204  0.63715510    -0.11200
C1022       C  0.79731555  0.66934457  0.66031815    -0.12700
C1023       C  0.88817553  0.59865191  0.55938072    -0.11200
C1024       C  0.91109586  0.58313058  0.54695465    -0.12700
C1025       C  0.74095408  0.62169004  0.53399307    -0.11200
C1026       C  0.77486698  0.62265382  0.52487962     0.10900
C1027       C  0.78373491  0.62279103  0.49071065    -0.11200
C1028       C  0.75902278  0.62271519  0.46598808    -0.11200
C1029       C  0.72509491  0.62186866  0.47507876     0.10900
C1030       C  0.71623925  0.62096479  0.50925027    -0.11200
H1031       H  0.73356083  0.62132717  0.56021596     0.14900
H1032       H  0.80975870  0.62362146  0.48309073     0.14900
H1033       H  0.76645633  0.62322067  0.43977898     0.14900
H1034       H  0.69020872  0.62041272  0.51686545     0.14900
C1035       C  0.66739385  0.16055778  0.19795142    -0.11200
C1036       C  0.65204247  0.13712663  0.18622877    -0.12700
C1037       C  0.68964054  0.34731110  0.13550263    -0.11200
C1038       C  0.70116924  0.33104677  0.15854683    -0.12700
C1039       C  0.65886147  0.29789507  0.32952101    -0.11200
C1040       C  0.63591655  0.30970898  0.34545724    -0.12700
C1041       C  0.82778870  0.33842455  0.29586500    -0.11200
C1042       C  0.84373393  0.36148620  0.30759473    -0.12700
C1043       C  0.69387181  0.15316501  0.63851120    -0.11200
C1044       C  0.70579238  0.16885479  0.66173203    -0.12700
C1045       C  0.61451994  0.09731847  0.56159016    -0.11200
C1046       C  0.59132713  0.08159052  0.54982632    -0.12700
C1047       C  0.88626132  0.09500789  0.43828747    -0.11200
C1048       C  0.90914747  0.07957379  0.45095560    -0.12700
C1049       C  0.79731845  0.16735229  0.33655595    -0.11200
C1050       C  0.80923139  0.15176412  0.35983817    -0.12700
C1051       C  0.75989804  0.12383997  0.53286508    -0.11200
C1052       C  0.72592761  0.12662354  0.52441447     0.10900
C1053       C  0.71652699  0.12930122  0.49049672    -0.11200
C1054       C  0.74083706  0.12931813  0.46532801    -0.11200
C1055       C  0.77482524  0.12597231  0.47373340     0.10900
C1056       C  0.78413743  0.12319938  0.50770586    -0.11200
H1057       H  0.76767105  0.12157343  0.55889086     0.14900
H1058       H  0.69042089  0.13167897  0.48348065     0.14900
H1059       H  0.73300064  0.13141947  0.43931452     0.14900
H1060       H  0.81018835  0.12075258  0.51488862     0.14900
C1061       C  0.83796481  0.20403972  0.16720794    -0.11200
C1062       C  0.86150661  0.19267942  0.15173087    -0.12700
C1063       C  0.06234945  0.38752508  0.09741382    -0.11200
C1064       C  0.05083935  0.41093651  0.08170549    -0.12700
C1065       C  0.16030201  0.29699925  0.17214185    -0.11200
C1066       C  0.13730096  0.30857605  0.15606003    -0.12700
C1067       C  0.03356983  0.24064833  0.12693998    -0.11200
C1068       C  0.02524930  0.27492239  0.12476126     0.10900
C1069       C  0.99148189  0.28442377  0.12230063    -0.11200
C1070       C  0.96641048  0.26004754  0.12245322    -0.11200
C1071       C  0.97476544  0.22579590  0.12438629     0.10900
C1072       C  0.00852651  0.21624829  0.12642300    -0.11200
H1073       H  0.05944641  0.23267078  0.12872123     0.14900
H1074       H  0.98441389  0.31070189  0.12072941     0.14900
H1075       H  0.94051272  0.26796298  0.12067353     0.14900
H1076       H  0.01552893  0.18995534  0.12809879     0.14900
C1077       C  0.08868063  0.08228491  0.95087848    -0.11200
C1078       C  0.11181250  0.09774613  0.93893949    -0.12700
C1079       C  0.08184622  0.94999948  0.08863696    -0.11200
C1080       C  0.09703216  0.93785044  0.11203827    -0.12700
C1081       C  0.95081212  0.08948282  0.08183295    -0.11200
C1082       C  0.93878584  0.11289780  0.09716951    -0.12700
C1083       C  0.91229931  0.91944245  0.04607933    -0.11200
C1084       C  0.88910893  0.90378611  0.05782042    -0.12700
C1085       C  0.90499723  0.06068739  0.88762912    -0.11200
C1086       C  0.92080482  0.04858299  0.91064928    -0.12700
C1087       C  0.04795931  0.91069353  0.91848500    -0.11200
C1088       C  0.05953340  0.88731690  0.90264086    -0.12700
loop_ 
_geom_bond_atom_site_label_1 
_geom_bond_atom_site_label_2 
_geom_bond_distance 
_geom_bond_site_symmetry_2 
_ccdc_geom_bond_type 
Zn1           O5   1.970   1_656  S
Zn1           O6   2.025   1_655  S
Zn1          O10   2.023   1_556  S
Zn1          O17   1.997       .  S
Zn2           O5   1.970   1_566  S
Zn2           O7   2.035   1_556  S
Zn2           O9   2.021   1_565  S
Zn2          O13   2.008       .  S
Zn3           O5   1.970   1_665  S
Zn3           O8   2.042   1_565  S
Zn3          O11   2.025   1_655  S
Zn3          O14   1.999       .  S
Zn4           O5   1.980   1_666  S
Zn4          O12   2.061   1_556  S
Zn4          O15   2.070   1_655  S
Zn4          O16   2.066   1_565  S
O6           C18   1.273       .  A
O7           C19   1.274       .  A
O8           C20   1.274       .  A
O9           C18   1.273       .  A
O10          C20   1.273       .  A
O11          C19   1.274       .  A
O12          C21   1.279       .  A
O13          C22   1.269       .  A
O14          C21   1.269       .  A
O15          C22   1.279       .  A
O16          C23   1.279       .  A
O17          C23   1.268       .  A
C18        C1077   1.438       .  S
C19        C1079   1.443       .  S
C20        C1081   1.444       .  S
C21        C1083   1.442       .  S
C22        C1087   1.448       .  S
C23        C1086   1.443       .  S
C24        C1063   1.441       .  S
C24          N25   1.353       .  A
C24          N29   1.366       .  A
N25          C26   1.354       .  A
C26          N27   1.353       .  A
C26        C1068   1.469       .  S
N27          C28   1.353       .  A
C28        C1066   1.440       .  S
C28          N29   1.366       .  A
C30        C1082   1.442       .  S
C30          N31   1.353       .  A
C30          N35   1.367       .  A
N31          C32   1.353       .  A
C32          N33   1.354       .  A
C32        C1071   1.468       .  S
N33          C34   1.353       .  A
C34        C1062   1.442       .  S
C34          N35   1.367       .  A
C36        C1047   1.440       .  S
C36          N37   1.352       .  A
C36          N41   1.366       .  A
N37          C38   1.353       .  A
C38          N39   1.354       .  A
C38        C1055   1.470       .  S
N39          C40   1.354       .  A
C40        C1050   1.441       .  S
C40          N41   1.367       .  A
C42        C1043   1.442       .  S
C42          N43   1.352       .  A
C42          N47   1.367       .  A
N43          C44   1.353       .  A
C44          N45   1.353       .  A
C44        C1052   1.466       .  S
N45          C46   1.353       .  A
C46        C1045   1.443       .  S
C46          N47   1.367       .  A
Zn48         O52   1.970       .  S
Zn48         O53   2.023       .  S
Zn48         O57   2.030       .  S
Zn48         O64   2.004       .  S
Zn49         O52   1.969       .  S
Zn49         O54   2.023       .  S
Zn49         O56   2.031       .  S
Zn49         O60   1.999       .  S
Zn50         O52   1.969       .  S
Zn50         O55   2.021       .  S
Zn50         O58   2.036       .  S
Zn50         O61   2.004       .  S
Zn51         O52   1.978       .  S
Zn51         O59   2.061       .  S
Zn51         O62   2.058       .  S
Zn51         O63   2.062       .  S
O53          C65   1.273       .  A
O54          C66   1.273       .  A
O55          C67   1.273       .  A
O56          C65   1.273       .  A
O57          C67   1.273       .  A
O58          C66   1.274       .  A
O59          C68   1.278       .  A
O60          C69   1.269       .  A
O61          C68   1.269       .  A
O62          C69   1.278       .  A
O63          C70   1.278       .  A
O64          C70   1.269       .  A
C65        C1039   1.441       .  S
C66        C1049   1.443       .  S
C67        C1035   1.439       .  S
C68        C1061   1.444       .  S
C69        C1041   1.441       .  S
C70        C1038   1.444       .  S
C71        C1023   1.439       .  S
C71          N72   1.352       .  A
C71          N76   1.366       .  A
N72          C73   1.352       .  A
C73          N74   1.353       .  A
C73        C1026   1.467       .  S
N74          C75   1.353       .  A
C75        C1021   1.440       .  S
C75          N76   1.366       .  A
C77        C1017   1.446       .  S
C77          N78   1.352       .  A
C77          N82   1.369       .  A
N78          C79   1.353       .  A
C79          N80   1.353       .  A
C79        C1029   1.467       .  S
N80          C81   1.353       .  A
C81        C1020   1.446       .  S
C81          N82   1.369       .  A
Zn83         O87   1.972   1_455  S
Zn83         O88   2.029   1_455  S
Zn83         O92   2.002       .  S
Zn83         O99   2.042       .  S
Zn84         O87   1.970       .  S
Zn84         O89   2.007       .  S
Zn84         O91   2.034       .  S
Zn84         O95   2.025       .  S
Zn85         O87   1.978   1_455  S
Zn85         O90   2.055       .  S
Zn85         O93   2.062   1_455  S
Zn85         O96   2.062       .  S
Zn86         O87   1.970   1_455  S
Zn86         O94   2.000       .  S
Zn86         O97   2.031   1_455  S
Zn86         O98   2.022       .  S
O88         C100   1.274       .  A
O89         C101   1.269       .  A
O90         C102   1.278       .  A
O91         C100   1.274       .  A
O92         C102   1.269       .  A
O93         C101   1.278       .  A
O94         C103   1.268       .  A
O95         C104   1.274       .  A
O96         C103   1.278       .  A
O97         C104   1.273       .  A
O98         C105   1.273       .  A
O99         C105   1.274       .  A
C100       C1014   1.443       .  S
C101       C1015   1.445       .  S
C102       C1011   1.441       .  S
C103       C1009   1.443       .  S
C104       C1024   1.441       .  S
C105       C1007   1.444       .  S
C106        C996   1.439       .  S
C106        N107   1.353       .  A
C106        N111   1.365       .  A
N107        C108   1.354       .  A
C108        N109   1.353       .  A
C108        C998   1.469       .  S
N109        C110   1.352       .  A
C110        C993   1.439       .  S
C110        N111   1.365       .  A
C112        C991   1.441       .  S
C112        N113   1.353       .  A
C112        N117   1.366       .  A
N113        C114   1.353       .  A
C114        N115   1.353       .  A
C114       C1001   1.467       .  S
N115        C116   1.353       .  A
C116        C989   1.441       .  S
C116        N117   1.366       .  A
C118        C978   1.445       .  S
C118        N119   1.354       .  A
C118        N123   1.368       .  A
N119        C120   1.354       .  A
C120        N121   1.353       .  A
C120        C983   1.469       .  S
N121        C122   1.352       .  A
C122        C975   1.442       .  S
C122        N123   1.368       .  A
C124       C1080   1.440       .  S
C124        N125   1.366       .  A
C124        N129   1.352       .  A
N125        C126   1.367       .  A
C126        C974   1.442       .  S
C126        N127   1.354       .  A
N127        C128   1.354       .  A
C128        N129   1.352       .  A
C128        C980   1.465       .  S
Zn130       O134   1.970       .  S
Zn130       O135   2.035       .  S
Zn130       O139   2.005       .  S
Zn130       O146   2.028       .  S
Zn131       O134   1.970       .  S
Zn131       O136   2.007       .  S
Zn131       O138   2.019       .  S
Zn131       O142   2.031       .  S
Zn132       O134   1.978       .  S
Zn132       O137   2.061       .  S
Zn132       O140   2.063       .  S
Zn132       O143   2.060       .  S
Zn133       O134   1.969       .  S
Zn133       O141   1.998       .  S
Zn133       O144   2.015       .  S
Zn133       O145   2.037       .  S
O135        C147   1.274       .  A
O136        C148   1.269       .  A
O137        C149   1.278       .  A
O138        C147   1.273       .  A
O139        C149   1.270       .  A
O140        C148   1.278       .  A
O141        C150   1.269       .  A
O142        C151   1.273       .  A
O143        C150   1.278       .  A
O144        C151   1.272       .  A
O145        C152   1.274       .  A
O146        C152   1.273       .  A
C147        C995   1.441       .  S
C148        C972   1.445       .  S
C149        C973   1.443       .  S
C150        C967   1.441       .  S
C151        C969   1.438       .  S
C152        C965   1.444       .  S
Zn153       O157   1.971       .  S
Zn153       O158   2.024       .  S
Zn153       O162   2.028       .  S
Zn153       O169   2.009       .  S
Zn154       O157   1.971       .  S
Zn154       O159   2.029       .  S
Zn154       O161   2.035       .  S
Zn154       O165   2.001       .  S
Zn155       O157   1.969       .  S
Zn155       O160   2.016       .  S
Zn155       O163   2.033       .  S
Zn155       O166   2.002       .  S
Zn156       O157   1.978       .  S
Zn156       O164   2.064       .  S
Zn156       O167   2.057       .  S
Zn156       O168   2.066       .  S
O158        C170   1.273       .  A
O159        C171   1.274       .  A
O160        C172   1.273       .  A
O161        C170   1.274       .  A
O162        C172   1.273       .  A
O163        C171   1.273       .  A
O164        C173   1.278       .  A
O165        C174   1.269       .  A
O166        C173   1.269       .  A
O167        C174   1.278       .  A
O168        C175   1.279       .  A
O169        C175   1.270       .  A
C170        C963   1.442       .  S
C171        C959   1.443       .  S
C172        C961   1.437       .  S
C173        C957   1.444       .  S
C174       C1065   1.441       .  S
C175        C977   1.446       .  S
C176        C946   1.440       .  S
C176        N177   1.367       .  A
C176        N181   1.353       .  A
N177        C178   1.366       .  A
C178        C944   1.441       .  S
C178        N179   1.352       .  A
N179        C180   1.353       .  A
C180        N181   1.354       .  A
C180        C948   1.467       .  S
C182        C941   1.439       .  S
C182        N183   1.352       .  A
C182        N187   1.366       .  A
N183        C184   1.353       .  A
C184        N185   1.353       .  A
C184        C951   1.467       .  S
N185        C186   1.353       .  A
C186        C939   1.440       .  S
C186        N187   1.366       .  A
Zn188       O192   1.970   1_565  S
Zn188       O193   2.029   1_565  S
Zn188       O197   2.036       .  S
Zn188       O204   2.002       .  S
Zn189       O192   1.970       .  S
Zn189       O194   2.019       .  S
Zn189       O196   2.039       .  S
Zn189       O200   2.004       .  S
Zn190       O192   1.969   1_565  S
Zn190       O195   2.018       .  S
Zn190       O198   2.021   1_565  S
Zn190       O201   2.005       .  S
Zn191       O192   1.977   1_565  S
Zn191       O199   2.066       .  S
Zn191       O202   2.057   1_565  S
Zn191       O203   2.057       .  S
O193        C205   1.273       .  A
O194        C206   1.273       .  A
O195        C207   1.273       .  A
O196        C205   1.274       .  A
O197        C207   1.274       .  A
O198        C206   1.272       .  A
O199        C208   1.278       .  A
O200        C209   1.269       .  A
O201        C208   1.269       .  A
O202        C209   1.278       .  A
O203        C210   1.278       .  A
O204        C210   1.270       .  A
C205       C1046   1.445       .  S
C206        C937   1.436       .  S
C207        C936   1.440       .  S
C208        C932   1.446       .  S
C209        C933   1.442       .  S
C210        C945   1.442       .  S
C211        C920   1.440       .  S
C211        N212   1.366       .  A
C211        N216   1.353       .  A
N212        C213   1.366       .  A
C213        C918   1.439       .  S
C213        N214   1.352       .  A
N214        C215   1.353       .  A
C215        N216   1.353       .  A
C215        C922   1.467       .  S
C217        C964   1.441       .  S
C217        N218   1.354       .  A
C217        N222   1.366       .  A
N218        C219   1.354       .  A
C219        N220   1.353       .  A
C219        C925   1.468       .  S
N220        C221   1.352       .  A
C221       C1012   1.439       .  S
C221        N222   1.366       .  A
C223        C906   1.437       .  S
C223        N224   1.353       .  A
C223        N228   1.365       .  A
N224        C225   1.352       .  A
C225        N226   1.354       .  A
C225        C908   1.466       .  S
N226        C227   1.353       .  A
C227       C1040   1.439       .  S
C227        N228   1.365       .  A
C229        C962   1.436       .  S
C229        N230   1.354       .  A
C229        N234   1.364       .  A
N230        C231   1.354       .  A
C231        N232   1.352       .  A
C231        C911   1.468       .  S
N232        C233   1.351       .  A
C233        C938   1.434       .  S
C233        N234   1.363       .  A
C235        C893   1.438       .  S
C235        N236   1.353       .  A
C235        N240   1.365       .  A
N236        C237   1.353       .  A
C237        N238   1.353       .  A
C237        C899   1.467       .  S
N238        C239   1.352       .  A
C239        C891   1.438       .  S
C239        N240   1.365       .  A
C241        C887   1.439       .  S
C241        N242   1.352       .  A
C241        N246   1.366       .  A
N242        C243   1.352       .  A
C243        N244   1.353       .  A
C243        C896   1.466       .  S
N244        C245   1.353       .  A
C245        C890   1.439       .  S
C245        N246   1.366       .  A
Zn247       O251   1.968       .  S
Zn247       O252   1.996       .  S
Zn247       O256   2.019       .  S
Zn247       O263   2.028       .  S
Zn248       O251   1.977       .  S
Zn248       O253   2.057       .  S
Zn248       O255   2.060       .  S
Zn248       O259   2.069       .  S
Zn249       O251   1.970       .  S
Zn249       O254   2.038       .  S
Zn249       O257   2.000       .  S
Zn249       O260   2.019       .  S
Zn250       O251   1.968       .  S
Zn250       O258   2.028       .  S
Zn250       O261   2.008       .  S
Zn250       O262   2.019       .  S
O252        C264   1.268       .  A
O253        C265   1.278       .  A
O254        C266   1.273       .  A
O255        C264   1.278       .  A
O256        C266   1.272       .  A
O257        C265   1.269       .  A
O258        C267   1.273       .  A
O259        C268   1.279       .  A
O260        C267   1.273       .  A
O261        C268   1.269       .  A
O262        C269   1.273       .  A
O263        C269   1.273       .  A
C264        C942   1.440       .  S
C265        C889   1.441       .  S
C266        C919   1.442       .  S
C267        C905   1.439       .  S
C268       C1019   1.448       .  S
C269        C885   1.438       .  S
C270        C958   1.443       .  S
C270        N271   1.353       .  A
C270        N275   1.367       .  A
N271        C272   1.354       .  A
C272        N273   1.353       .  A
C272        C876   1.470       .  S
N273        C274   1.353       .  A
C274        C873   1.443       .  S
C274        N275   1.367       .  A
C276        C872   1.437       .  S
C276        N277   1.354       .  A
C276        N281   1.365       .  A
N277        C278   1.353       .  A
C278        N279   1.352       .  A
C278        C879   1.465       .  S
N279        C280   1.352       .  A
C280       C1078   1.436       .  S
C280        N281   1.364       .  A
C282        C857   1.444       .  S
C282        N283   1.352       .  A
C282        N287   1.368       .  A
N283        C284   1.353       .  A
C284        N285   1.353       .  A
C284        C862   1.466       .  S
N285        C286   1.353       .  A
C286        C860   1.444       .  S
C286        N287   1.368       .  A
C288       C1010   1.441       .  S
C288        N289   1.352       .  A
C288        N293   1.367       .  A
N289        C290   1.353       .  A
C290        N291   1.353       .  A
C290        C865   1.467       .  S
N291        C292   1.353       .  A
C292        C856   1.442       .  S
C292        N293   1.367       .  A
Zn294       O298   1.968       .  S
Zn294       O299   2.017       .  S
Zn294       O303   1.998       .  S
Zn294       O310   2.035       .  S
Zn295       O298   1.971       .  S
Zn295       O300   2.009       .  S
Zn295       O302   2.035       .  S
Zn295       O306   2.019       .  S
Zn296       O298   1.977       .  S
Zn296       O301   2.058       .  S
Zn296       O304   2.063       .  S
Zn296       O307   2.059       .  S
Zn297       O298   1.970       .  S
Zn297       O305   2.003       .  S
Zn297       O308   2.028       .  S
Zn297       O309   2.025       .  S
O299        C311   1.272       .  A
O300        C312   1.270       .  A
O301        C313   1.278       .  A
O302        C311   1.274       .  A
O303        C313   1.269       .  A
O304        C312   1.278       .  A
O305        C314   1.269       .  A
O306        C315   1.273       .  A
O307        C314   1.278       .  A
O308        C315   1.273       .  A
O309        C316   1.273       .  A
O310        C316   1.273       .  A
C311        C853   1.440       .  S
C312        C859   1.446       .  S
C313        C917   1.441       .  S
C314        C850   1.443       .  S
C315        C871   1.438       .  S
C316        C851   1.443       .  S
Zn317       O321   1.970   1_565  S
Zn317       O322   2.025       .  S
Zn317       O326   2.012       .  S
Zn317       O333   2.036   1_565  S
Zn318       O321   1.969   1_564  S
Zn318       O323   2.000       .  S
Zn318       O325   2.031   1_554  S
Zn318       O329   2.025   1_565  S
Zn319       O321   1.977   1_564  S
Zn319       O324   2.058   1_554  S
Zn319       O327   2.054       .  S
Zn319       O330   2.050   1_565  S
Zn320       O321   1.971   1_554  S
Zn320       O328   2.001       .  S
Zn320       O331   2.042       .  S
Zn320       O332   2.025   1_554  S
O322        C334   1.274       .  A
O323        C335   1.269       .  A
O324        C336   1.277       .  A
O325        C334   1.273       .  A
O326        C336   1.270       .  A
O327        C335   1.277       .  A
O328        C337   1.269       .  A
O329        C338   1.273       .  A
O330        C337   1.277       .  A
O331        C338   1.274       .  A
O332        C339   1.274       .  A
O333        C339   1.274       .  A
C334        C845   1.441       .  S
C335        C994   1.440       .  S
C336        C844   1.445       .  S
C337        C841   1.439       .  S
C338        C874   1.445       .  S
C339        C847   1.443       .  S
C340       C1042   1.439       .  S
C340        N341   1.353       .  A
C340        N345   1.367       .  A
N341        C342   1.352       .  A
C342        N343   1.352       .  A
C342        C832   1.466       .  S
N343        C344   1.351       .  A
C344       C1013   1.440       .  S
C344        N345   1.366       .  A
C346        C829   1.438       .  S
C346        N347   1.366       .  A
C346        N351   1.351       .  A
N347        C348   1.366       .  A
C348        C828   1.439       .  S
C348        N349   1.353       .  A
N349        C350   1.353       .  A
C350        N351   1.352       .  A
C350        C835   1.464       .  S
C352        C842   1.438       .  S
C352        N353   1.365       .  A
C352        N357   1.353       .  A
N353        C354   1.365       .  A
C354       C1036   1.438       .  S
C354        N355   1.353       .  A
N355        C356   1.353       .  A
C356        N357   1.353       .  A
C356        C818   1.465       .  S
C358        C816   1.437       .  S
C358        N359   1.352       .  A
C358        N363   1.364       .  A
N359        C360   1.353       .  A
C360        N361   1.355       .  A
C360        C821   1.471       .  S
N361        C362   1.354       .  A
C362        C935   1.439       .  S
C362        N363   1.365       .  A
C364       C1008   1.442       .  S
C364        N365   1.353       .  A
C364        N369   1.367       .  A
N365        C366   1.353       .  A
C366        N367   1.352       .  A
C366        C806   1.464       .  S
N367        C368   1.352       .  A
C368        C968   1.439       .  S
C368        N369   1.367       .  A
C370        C803   1.445       .  S
C370        N371   1.353       .  A
C370        N375   1.368       .  A
N371        C372   1.354       .  A
C372        N373   1.354       .  A
C372        C809   1.470       .  S
N373        C374   1.353       .  A
C374        C802   1.444       .  S
C374        N375   1.368       .  A
C376        C790   1.442       .  S
C376        N377   1.354       .  A
C376        N381   1.367       .  A
N377        C378   1.353       .  A
C378        N379   1.353       .  A
C378        C792   1.467       .  S
N379        C380   1.352       .  A
C380       C1084   1.440       .  S
C380        N381   1.366       .  A
C382        C843   1.444       .  S
C382        N383   1.354       .  A
C382        N387   1.368       .  A
N383        C384   1.354       .  A
C384        N385   1.353       .  A
C384        C795   1.468       .  S
N385        C386   1.351       .  A
C386        C787   1.443       .  S
C386        N387   1.367       .  A
Zn388       O392   1.971       .  S
Zn388       O393   2.027       .  S
Zn388       O397   2.007       .  S
Zn388       O404   2.027       .  S
Zn389       O392   1.971       .  S
Zn389       O394   2.007       .  S
Zn389       O396   2.021       .  S
Zn389       O400   2.038       .  S
Zn390       O392   1.980       .  S
Zn390       O395   2.074       .  S
Zn390       O398   2.067       .  S
Zn390       O401   2.061       .  S
Zn391       O392   1.970       .  S
Zn391       O399   1.992       .  S
Zn391       O402   2.024       .  S
Zn391       O403   2.034       .  S
O393        C405   1.273       .  A
O394        C406   1.270       .  A
O395        C407   1.280       .  A
O396        C405   1.273       .  A
O397        C407   1.269       .  A
O398        C406   1.279       .  A
O399        C408   1.268       .  A
O400        C409   1.274       .  A
O401        C408   1.279       .  A
O402        C409   1.273       .  A
O403        C410   1.273       .  A
O404        C410   1.273       .  A
C405        C815   1.439       .  S
C406        C804   1.446       .  S
C407       C1018   1.448       .  S
C408        C830   1.439       .  S
C409        C789   1.443       .  S
C410        C992   1.443       .  S
C411        C970   1.437       .  S
C411        N412   1.364       .  A
C411        N416   1.353       .  A
N412        C413   1.364       .  A
C413        C886   1.437       .  S
C413        N414   1.353       .  A
N414        C415   1.354       .  A
C415        N416   1.354       .  A
C415        C778   1.473       .  S
C417        C960   1.441       .  S
C417        N418   1.353       .  A
C417        N422   1.366       .  A
N418        C419   1.353       .  A
C419        N420   1.353       .  A
C419        C781   1.464       .  S
N420        C421   1.354       .  A
C421        C775   1.441       .  S
C421        N422   1.367       .  A
Zn423       O427   1.968   1_556  S
Zn423       O428   2.023       .  S
Zn423       O432   2.035   1_556  S
Zn423       O439   2.001       .  S
Zn424       O427   1.970   1_556  S
Zn424       O429   2.026   1_556  S
Zn424       O431   2.039       .  S
Zn424       O435   2.001       .  S
Zn425       O427   1.968       .  S
Zn425       O430   2.026       .  S
Zn425       O433   2.034       .  S
Zn425       O436   2.006       .  S
Zn426       O427   1.977   1_556  S
Zn426       O434   2.054   1_556  S
Zn426       O437   2.051       .  S
Zn426       O438   2.049       .  S
O428        C440   1.273       .  A
O429        C441   1.274       .  A
O430        C442   1.274       .  A
O431        C440   1.274       .  A
O432        C442   1.274       .  A
O433        C441   1.274       .  A
O434        C443   1.277       .  A
O435        C444   1.269       .  A
O436        C443   1.269       .  A
O437        C444   1.277       .  A
O438        C445   1.277       .  A
O439        C445   1.269       .  A
C440        C769   1.443       .  S
C441        C990   1.443       .  S
C442        C776   1.443       .  S
C443        C771   1.442       .  S
C444        C894   1.440       .  S
C445        C773   1.439       .  S
Zn446       O450   1.979   1_465  S
Zn446       O451   2.064   1_565  S
Zn446       O455   2.063   1_455  S
Zn446       O462   2.055       .  S
Zn447       O450   1.970   1_455  S
Zn447       O452   2.033   1_455  S
Zn447       O454   2.002       .  S
Zn447       O458   2.027       .  S
Zn448       O450   1.971   1_565  S
Zn448       O453   2.007       .  S
Zn448       O456   2.026   1_565  S
Zn448       O459   2.035       .  S
Zn449       O450   1.972   1_465  S
Zn449       O457   2.028   1_455  S
Zn449       O460   2.037   1_565  S
Zn449       O461   2.001       .  S
O451        C463   1.278       .  A
O452        C464   1.274       .  A
O453        C465   1.269       .  A
O454        C463   1.269       .  A
O455        C465   1.278       .  A
O456        C464   1.274       .  A
O457        C466   1.274       .  A
O458        C467   1.274       .  A
O459        C466   1.274       .  A
O460        C467   1.274       .  A
O461        C468   1.269       .  A
O462        C468   1.278       .  A
C463        C976   1.444       .  S
C464       C1048   1.442       .  S
C465        C801   1.445       .  S
C466        C767   1.443       .  S
C467        C764   1.444       .  S
C468        C766   1.440       .  S
C469        C931   1.444       .  S
C469        N470   1.353       .  A
C469        N474   1.368       .  A
N470        C471   1.353       .  A
C471        N472   1.353       .  A
C471        C754   1.465       .  S
N472        C473   1.352       .  A
C473        C971   1.443       .  S
C473        N474   1.368       .  A
C475        C752   1.438       .  S
C475        N476   1.353       .  A
C475        N480   1.365       .  A
N476        C477   1.353       .  A
C477        N478   1.353       .  A
C477        C757   1.469       .  S
N478        C479   1.353       .  A
C479        C765   1.439       .  S
C479        N480   1.365       .  A
C481        C774   1.438       .  S
C481        N482   1.353       .  A
C481        N486   1.365       .  A
N482        C483   1.353       .  A
C483        N484   1.354       .  A
C483        C742   1.469       .  S
N484        C485   1.353       .  A
C485        C854   1.439       .  S
C485        N486   1.364       .  A
C487        C848   1.441       .  S
C487        N488   1.366       .  A
C487        N492   1.353       .  A
N488        C489   1.366       .  A
C489        C739   1.441       .  S
C489        N490   1.353       .  A
N490        C491   1.353       .  A
C491        N492   1.354       .  A
C491        C745   1.469       .  S
C493        C849   1.441       .  S
C493        N494   1.353       .  A
C493        N498   1.367       .  A
N494        C495   1.353       .  A
C495        N496   1.353       .  A
C495        C730   1.468       .  S
N496        C497   1.352       .  A
C497        C763   1.442       .  S
C497        N498   1.367       .  A
C499        C727   1.443       .  S
C499        N500   1.352       .  A
C499        N504   1.368       .  A
N500        C501   1.353       .  A
C501        N502   1.353       .  A
C501        C733   1.466       .  S
N502        C503   1.353       .  A
C503       C1016   1.443       .  S
C503        N504   1.368       .  A
C505       C1037   1.442       .  S
C505        N506   1.367       .  A
C505        N510   1.353       .  A
N506        C507   1.367       .  A
C507        C772   1.440       .  S
C507        N508   1.353       .  A
N508        C509   1.353       .  A
C509        N510   1.354       .  A
C509        C718   1.466       .  S
C511        C715   1.439       .  S
C511        N512   1.365       .  A
C511        N516   1.354       .  A
N512        C513   1.365       .  A
C513        C713   1.438       .  S
C513        N514   1.353       .  A
N514        C515   1.354       .  A
C515        N516   1.354       .  A
C515        C721   1.471       .  S
Zn517       O521   1.969       .  S
Zn517       O522   2.025       .  S
Zn517       O526   1.999       .  S
Zn517       O533   2.031       .  S
Zn518       O521   1.970       .  S
Zn518       O523   1.999       .  S
Zn518       O525   2.035       .  S
Zn518       O529   2.020       .  S
Zn519       O521   1.980       .  S
Zn519       O524   2.066       .  S
Zn519       O527   2.063       .  S
Zn519       O530   2.066       .  S
Zn520       O521   1.970       .  S
Zn520       O528   2.005       .  S
Zn520       O531   2.034       .  S
Zn520       O532   2.023       .  S
O522        C534   1.273       .  A
O523        C535   1.269       .  A
O524        C536   1.279       .  A
O525        C534   1.273       .  A
O526        C536   1.269       .  A
O527        C535   1.279       .  A
O528        C537   1.269       .  A
O529        C538   1.273       .  A
O530        C537   1.279       .  A
O531        C538   1.274       .  A
O532        C539   1.273       .  A
O533        C539   1.273       .  A
C534        C740   1.443       .  S
C535        C712   1.442       .  S
C536       C1044   1.444       .  S
C537        C728   1.445       .  S
C538        C716   1.441       .  S
C539        C888   1.441       .  S
C540        C700   1.444       .  S
C540        N541   1.351       .  A
C540        N545   1.369       .  A
N541        C542   1.352       .  A
C542        N543   1.354       .  A
C542        C702   1.468       .  S
N543        C544   1.354       .  A
C544       C1088   1.446       .  S
C544        N545   1.369       .  A
C546        C697   1.445       .  S
C546        N547   1.369       .  A
C546        N551   1.353       .  A
N547        C548   1.369       .  A
C548        C695   1.445       .  S
C548        N549   1.352       .  A
N549        C550   1.353       .  A
C550        N551   1.353       .  A
C550        C705   1.466       .  S
C552       C1085   1.441       .  S
C552        N553   1.352       .  A
C552        N557   1.368       .  A
N553        C554   1.353       .  A
C554        N555   1.352       .  A
C554        C686   1.465       .  S
N555        C556   1.352       .  A
C556        C711   1.440       .  S
C556        N557   1.367       .  A
C558        C768   1.441       .  S
C558        N559   1.367       .  A
C558        N563   1.353       .  A
N559        C560   1.367       .  A
C560        C683   1.439       .  S
C560        N561   1.352       .  A
N561        C562   1.352       .  A
C562        N563   1.353       .  A
C562        C689   1.465       .  S
Zn564       O568   1.970       .  S
Zn564       O569   2.031       .  S
Zn564       O573   2.026       .  S
Zn564       O580   2.001       .  S
Zn565       O568   1.970       .  S
Zn565       O570   2.033       .  S
Zn565       O572   2.021       .  S
Zn565       O576   2.005       .  S
Zn566       O568   1.971       .  S
Zn566       O571   2.037       .  S
Zn566       O574   2.025       .  S
Zn566       O577   1.998       .  S
Zn567       O568   1.980       .  S
Zn567       O575   2.060       .  S
Zn567       O578   2.069       .  S
Zn567       O579   2.068       .  S
O569        C581   1.273       .  A
O570        C582   1.273       .  A
O571        C583   1.274       .  A
O572        C581   1.273       .  A
O573        C583   1.273       .  A
O574        C582   1.273       .  A
O575        C584   1.278       .  A
O576        C585   1.269       .  A
O577        C584   1.269       .  A
O578        C585   1.279       .  A
O579        C586   1.279       .  A
O580        C586   1.269       .  A
C581        C892   1.440       .  S
C582       C1022   1.442       .  S
C583        C943   1.443       .  S
C584        C684   1.441       .  S
C585        C698   1.447       .  S
C586        C788   1.445       .  S
Zn587       O591   1.970   1_656  S
Zn587       O592   2.005       .  S
Zn587       O596   2.032   1_556  S
Zn587       O603   2.019       .  S
Zn588       O591   1.980   1_556  S
Zn588       O593   2.066   1_556  S
Zn588       O595   2.070   1_455  S
Zn588       O599   2.069       .  S
Zn589       O591   1.971       .  S
Zn589       O594   2.024   1_455  S
Zn589       O597   1.997       .  S
Zn589       O600   2.036       .  S
Zn590       O591   1.971   1_556  S
Zn590       O598   2.025   1_556  S
Zn590       O601   2.004       .  S
Zn590       O602   2.032   1_455  S
O592        C604   1.269       .  A
O593        C605   1.279       .  A
O594        C606   1.273       .  A
O595        C604   1.279       .  A
O596        C606   1.273       .  A
O597        C605   1.269       .  A
O598        C607   1.273       .  A
O599        C608   1.279       .  A
O600        C607   1.274       .  A
O601        C608   1.269       .  A
O602        C609   1.273       .  A
O603        C609   1.273       .  A
C604        C696   1.447       .  S
C605        C681   1.443       .  S
C606        C827   1.441       .  S
C607       C1064   1.443       .  S
C608        C858   1.446       .  S
C609        C714   1.440       .  S
C610        C852   1.441       .  S
C610        N611   1.353       .  A
C610        N615   1.366       .  A
N611        C612   1.354       .  A
C612        N613   1.354       .  A
C612        C675   1.470       .  S
N613        C614   1.353       .  A
C614        C934   1.441       .  S
C614        N615   1.366       .  A
C616        C670   1.439       .  S
C616        N617   1.365       .  A
C616        N621   1.354       .  A
N617        C618   1.365       .  A
C618        C846   1.439       .  S
C618        N619   1.353       .  A
N619        C620   1.353       .  A
C620        N621   1.354       .  A
C620        C672   1.468       .  S
C622        C966   1.442       .  S
C622        N623   1.354       .  A
C622        N627   1.367       .  A
N623        C624   1.354       .  A
C624        N625   1.352       .  A
C624        C660   1.467       .  S
N625        C626   1.351       .  A
C626        C682   1.440       .  S
C626        N627   1.367       .  A
C628        C657   1.439       .  S
C628        N629   1.351       .  A
C628        N633   1.366       .  A
N629        C630   1.352       .  A
C630        N631   1.353       .  A
C630        C663   1.467       .  S
N631        C632   1.354       .  A
C632        C770   1.441       .  S
C632        N633   1.367       .  A
Zn634       O638   1.968       .  S
Zn634       O639   2.028       .  S
Zn634       O643   2.020       .  S
Zn634       O650   2.003       .  S
Zn635       O638   1.971       .  S
Zn635       O640   2.037       .  S
Zn635       O642   2.022       .  S
Zn635       O646   2.003       .  S
Zn636       O638   1.969       .  S
Zn636       O641   2.034       .  S
Zn636       O644   2.018       .  S
Zn636       O647   1.994       .  S
Zn637       O638   1.979       .  S
Zn637       O645   2.063       .  S
Zn637       O648   2.064       .  S
Zn637       O649   2.071       .  S
O639        C651   1.273       .  A
O640        C652   1.274       .  A
O641        C653   1.273       .  A
O642        C651   1.273       .  A
O643        C653   1.273       .  A
O644        C652   1.272       .  A
O645        C654   1.279       .  A
O646        C655   1.269       .  A
O647        C654   1.268       .  A
O648        C655   1.279       .  A
O649        C656   1.279       .  A
O650        C656   1.269       .  A
C651        C751   1.440       .  S
C652        C940   1.442       .  S
C653        C669   1.441       .  S
C654        C658   1.441       .  S
C655        C855   1.444       .  S
C656        C699   1.446       .  S
C657        C658   1.209       .  T
C659        C660   1.403       .  A
C659        C664   1.394       .  A
C659        H665   1.083       .  S
C660        C661   1.403   1_554  A
C661        C662   1.391       .  A
C661        H666   1.083       .  S
C662        C663   1.403       .  A
C662        H667   1.083       .  S
C663        C664   1.403   1_556  A
C664        H668   1.083       .  S
C669        C670   1.209       .  T
C671        C672   1.403       .  A
C671        C676   1.394       .  A
C671        H677   1.083       .  S
C672        C673   1.403   1_565  A
C673        C674   1.393       .  A
C673        H678   1.083       .  S
C674        C675   1.404       .  A
C674        H679   1.083       .  S
C675        C676   1.404   1_545  A
C676        H680   1.083       .  S
C681        C682   1.210       .  T
C683        C684   1.209       .  T
C685        C686   1.403   1_565  A
C685        C690   1.392       .  A
C685        H691   1.083       .  S
C686        C687   1.403       .  A
C687        C688   1.392       .  A
C687        H692   1.083       .  S
C688        C689   1.403   1_545  A
C688        H693   1.083       .  S
C689        C690   1.403       .  A
C690        H694   1.083       .  S
C695        C696   1.213       .  T
C697        C698   1.213       .  T
C699        C700   1.212       .  T
C701        C702   1.403   1_655  A
C701        C706   1.393       .  A
C701        H707   1.083       .  S
C702        C703   1.404       .  A
C703        C704   1.392       .  A
C703        H708   1.083       .  S
C704        C705   1.402   1_455  A
C704        H709   1.083       .  S
C705        C706   1.403       .  A
C706        H710   1.083       .  S
C711        C712   1.210       .  T
C713        C714   1.208       .  T
C715        C716   1.209       .  T
C717        C718   1.403   1_556  A
C717        C722   1.394       .  A
C717        H723   1.083       .  S
C718        C719   1.402       .  A
C719        C720   1.393       .  A
C719        H724   1.083       .  S
C720        C721   1.404   1_554  A
C720        H725   1.083       .  S
C721        C722   1.404       .  A
C722        H726   1.083       .  S
C727        C728   1.212       .  T
C729        C730   1.404       .  A
C729        C734   1.394       .  A
C729        H735   1.083       .  S
C730        C731   1.403   1_455  A
C731        C732   1.392       .  A
C731        H736   1.083       .  S
C732        C733   1.402       .  A
C732        H737   1.083       .  S
C733        C734   1.403   1_655  A
C734        H738   1.083       .  S
C739        C740   1.210       .  T
C741        C742   1.403       .  A
C741        C746   1.393       .  A
C741        H747   1.083       .  S
C742        C743   1.404       .  A
C743        C744   1.394       .  A
C743        H748   1.083       .  S
C744        C745   1.404       .  A
C744        H749   1.083       .  S
C745        C746   1.403       .  A
C746        H750   1.083       .  S
C751        C752   1.208       .  T
C753        C754   1.402       .  A
C753        C758   1.393       .  A
C753        H759   1.083       .  S
C754        C755   1.402       .  A
C755        C756   1.393       .  A
C755        H760   1.083       .  S
C756        C757   1.404       .  A
C756        H761   1.083       .  S
C757        C758   1.404       .  A
C758        H762   1.083       .  S
C763        C764   1.211       .  T
C765        C766   1.209       .  T
C767        C768   1.210       .  T
C769        C770   1.210       .  T
C771        C772   1.210       .  T
C773        C774   1.208       .  T
C775        C776   1.210       .  T
C777        C778   1.405       .  A
C777        C782   1.393       .  A
C777        H783   1.083       .  S
C778        C779   1.405       .  A
C779        C780   1.394       .  A
C779        H784   1.083       .  S
C780        C781   1.402       .  A
C780        H785   1.083       .  S
C781        C782   1.401       .  A
C782        H786   1.083       .  S
C787        C788   1.211       .  T
C789        C790   1.210       .  T
C791        C792   1.403       .  A
C791        C796   1.394       .  A
C791        H797   1.083       .  S
C792        C793   1.402   1_554  A
C793        C794   1.391       .  A
C793        H798   1.083       .  S
C794        C795   1.403       .  A
C794        H799   1.083       .  S
C795        C796   1.403   1_556  A
C796        H800   1.083       .  S
C801        C802   1.212       .  T
C803        C804   1.212       .  T
C805        C806   1.402       .  A
C805        C810   1.393       .  A
C805        H811   1.084       .  S
C806        C807   1.402   1_455  A
C807        C808   1.392       .  A
C807        H812   1.083       .  S
C808        C809   1.404       .  A
C808        H813   1.083       .  S
C809        C810   1.405   1_655  A
C810        H814   1.083       .  S
C815        C816   1.208       .  T
C817        C818   1.402   1_565  A
C817        C822   1.393       .  A
C817        H823   1.083       .  S
C818        C819   1.402       .  A
C819        C820   1.393       .  A
C819        H824   1.083       .  S
C820        C821   1.404   1_545  A
C820        H825   1.083       .  S
C821        C822   1.405       .  A
C822        H826   1.083       .  S
C827        C828   1.209       .  T
C829        C830   1.208       .  T
C831        C832   1.403       .  A
C831        C836   1.391       .  A
C831        H837   1.083       .  S
C832        C833   1.403       .  A
C833        C834   1.393       .  A
C833        H838   1.083       .  S
C834        C835   1.403       .  A
C834        H839   1.083       .  S
C835        C836   1.402       .  A
C836        H840   1.083       .  S
C841        C842   1.208       .  T
C843        C844   1.212       .  T
C845        C846   1.209       .  T
C847        C848   1.210       .  T
C849        C850   1.210       .  T
C851        C852   1.210       .  T
C853        C854   1.208       .  T
C855        C856   1.211       .  T
C857        C858   1.212       .  T
C859        C860   1.212       .  T
C861        C862   1.403       .  A
C861        C866   1.392       .  A
C861        H867   1.083       .  S
C862        C863   1.403       .  A
C863        C864   1.393       .  A
C863        H868   1.083       .  S
C864        C865   1.404       .  A
C864        H869   1.083       .  S
C865        C866   1.403       .  A
C866        H870   1.083       .  S
C871        C872   1.207       .  T
C873        C874   1.211       .  T
C875        C876   1.404   1_556  A
C875        C880   1.394       .  A
C875        H881   1.083       .  S
C876        C877   1.404       .  A
C877        C878   1.392       .  A
C877        H882   1.083       .  S
C878        C879   1.402   1_554  A
C878        H883   1.083       .  S
C879        C880   1.402       .  A
C880        H884   1.083       .  S
C885        C886   1.207       .  T
C887        C888   1.209       .  T
C889        C890   1.209       .  T
C891        C892   1.208       .  T
C893        C894   1.208       .  T
C895        C896   1.403       .  A
C895        C900   1.393       .  A
C895        H901   1.083       .  S
C896        C897   1.403       .  A
C897        C898   1.393       .  A
C897        H902   1.083       .  S
C898        C899   1.404       .  A
C898        H903   1.083       .  S
C899        C900   1.403       .  A
C900        H904   1.083       .  S
C905        C906   1.208       .  T
C907        C908   1.402       .  A
C907        C912   1.392       .  A
C907        H913   1.083       .  S
C908        C909   1.403       .  A
C909        C910   1.394       .  A
C909        H914   1.083       .  S
C910        C911   1.403       .  A
C910        H915   1.083       .  S
C911        C912   1.404       .  A
C912        H916   1.083       .  S
C917        C918   1.209       .  T
C919        C920   1.210       .  T
C921        C922   1.403       .  A
C921        C926   1.394       .  A
C921        H927   1.083       .  S
C922        C923   1.403       .  A
C923        C924   1.393       .  A
C923        H928   1.083       .  S
C924        C925   1.403       .  A
C924        H929   1.083       .  S
C925        C926   1.403       .  A
C926        H930   1.083       .  S
C931        C932   1.212       .  T
C933        C934   1.210       .  T
C935        C936   1.209       .  T
C937        C938   1.206       .  T
C939        C940   1.209       .  T
C941        C942   1.209       .  T
C943        C944   1.210       .  T
C945        C946   1.210       .  T
C947        C948   1.403       .  A
C947        C952   1.393       .  A
C947        H953   1.083       .  S
C948        C949   1.403       .  A
C949        C950   1.392       .  A
C949        H954   1.083       .  S
C950        C951   1.403       .  A
C950        H955   1.083       .  S
C951        C952   1.404       .  A
C952        H956   1.083       .  S
C957        C958   1.211       .  T
C959        C960   1.210       .  T
C961        C962   1.207       .  T
C963        C964   1.210       .  T
C965        C966   1.211       .  T
C967        C968   1.209       .  T
C969        C970   1.208       .  T
C971        C972   1.212       .  T
C973        C974   1.211       .  T
C975        C976   1.211       .  T
C977        C978   1.212       .  T
C979        C980   1.403   1_545  A
C979        C984   1.393       .  A
C979        H985   1.083       .  S
C980        C981   1.401       .  A
C981        C982   1.393       .  A
C981        H986   1.083       .  S
C982        C983   1.405   1_565  A
C982        H987   1.083       .  S
C983        C984   1.403       .  A
C984        H988   1.083       .  S
C989        C990   1.210       .  T
C991        C992   1.210       .  T
C993        C994   1.209       .  T
C995        C996   1.209       .  T
C997        C998   1.404       .  A
C997       C1002   1.393       .  A
C997       H1003   1.083       .  S
C998        C999   1.403       .  A
C999       C1000   1.393       .  A
C999       H1004   1.083       .  S
C1000      C1001   1.403       .  A
C1000      H1005   1.083       .  S
C1001      C1002   1.403       .  A
C1002      H1006   1.083       .  S
C1007      C1008   1.211       .  T
C1009      C1010   1.210       .  T
C1011      C1012   1.209       .  T
C1013      C1014   1.210       .  T
C1015      C1016   1.212       .  T
C1017      C1018   1.213       .  T
C1019      C1020   1.213       .  T
C1021      C1022   1.210       .  T
C1023      C1024   1.209       .  T
C1025      C1026   1.403       .  A
C1025      C1030   1.393       .  A
C1025      H1031   1.083       .  S
C1026      C1027   1.403       .  A
C1027      C1028   1.392       .  A
C1027      H1032   1.083       .  S
C1028      C1029   1.403       .  A
C1028      H1033   1.083       .  S
C1029      C1030   1.403       .  A
C1030      H1034   1.083       .  S
C1035      C1036   1.208       .  T
C1037      C1038   1.211       .  T
C1039      C1040   1.209       .  T
C1041      C1042   1.209       .  T
C1043      C1044   1.211       .  T
C1045      C1046   1.211       .  T
C1047      C1048   1.210       .  T
C1049      C1050   1.210       .  T
C1051      C1052   1.402       .  A
C1051      C1056   1.392       .  A
C1051      H1057   1.083       .  S
C1052      C1053   1.402       .  A
C1053      C1054   1.394       .  A
C1053      H1058   1.083       .  S
C1054      C1055   1.404       .  A
C1054      H1059   1.083       .  S
C1055      C1056   1.404       .  A
C1056      H1060   1.083       .  S
C1061      C1062   1.211       .  T
C1063      C1064   1.210       .  T
C1065      C1066   1.209       .  T
C1067      C1068   1.404       .  A
C1067      C1072   1.393       .  A
C1067      H1073   1.083       .  S
C1068      C1069   1.404   1_455  A
C1069      C1070   1.393       .  A
C1069      H1074   1.083       .  S
C1070      C1071   1.403       .  A
C1070      H1075   1.083       .  S
C1071      C1072   1.403   1_655  A
C1072      H1076   1.083       .  S
C1077      C1078   1.207       .  T
C1079      C1080   1.210       .  T
C1081      C1082   1.211       .  T
C1083      C1084   1.210       .  T
C1085      C1086   1.210       .  T
C1087      C1088   1.213       .  T
