geometry optimzed in LAMMPS
_audit_creation_date              2020-11-30 
_audit_creation_method            'lammps2cif' 
_symmetry_space_group_name_H-M    'P1' 
_symmetry_Int_Tables_number       1 
_symmetry_cell_setting            triclinic 
loop_ 
_symmetry_equiv_pos_as_xyz 
  x,y,z 
_cell_length_a                    60.18079437 
_cell_length_b                    33.48821659688994 
_cell_length_c                    29.458322791708095 
_cell_angle_alpha                 90.15696042494449 
_cell_angle_beta                  89.60268954003728 
_cell_angle_gamma                 89.74635124297725 
loop_ 
_atom_site_label 
_atom_site_type_symbol 
_atom_site_fract_x 
_atom_site_fract_y 
_atom_site_fract_z 
_atom_site_charge 
O1          O  0.47592749  0.21876939  0.63190133    -0.57700
C2          C  0.48337684  0.11697773  0.60906364     0.74900
O3          O  0.46428208  0.16526423  0.49675760    -0.58900
C4          C  0.48793271  0.24955902  0.63051267     0.74900
C5          C  0.52965019  0.17530926  0.51752693     0.77300
Cd6        Cd  0.48673482  0.18985170  0.56042527     1.37500
O7          O  0.49995877  0.13959211  0.61390823    -0.57700
O8          O  0.51928495  0.15041907  0.54165277    -0.56500
C9          C  0.44683279  0.18455984  0.50706288     0.77200
O10         O  0.51949253  0.20800447  0.50984148    -0.58900
O11         O  0.46730803  0.13068511  0.58647348    -0.57400
O12         O  0.49871120  0.25519827  0.59396271    -0.57400
O13         O  0.44923931  0.21230225  0.53583928    -0.56500
C14         C  0.78902406  0.30040729  0.60604598    -0.02400
C15         C  0.68994589  0.08760638  0.45345867    -0.02400
O16         O  0.98856220  0.34241520  0.57005579    -0.57700
C17         C  0.99803085  0.27677650  0.45505848     0.74900
O18         O  0.02448182  0.22249830  0.56905881    -0.58900
C19         C  0.99040598  0.33805924  0.61264852     0.74900
C20         C  0.95136887  0.24280194  0.56192644     0.77300
Cd21       Cd  0.99511281  0.27288578  0.55120981     1.37500
O22         O  0.99759712  0.30860958  0.47860295    -0.57700
O23         O  0.95728179  0.26589261  0.53035990    -0.56500
C24         C  0.03961460  0.24891731  0.56785396     0.77200
O25         O  0.96649969  0.23008348  0.58817507    -0.58900
O26         O  0.99804704  0.24405611  0.47658527    -0.57400
O27         O  0.99407944  0.30305341  0.62684087    -0.57400
O28         O  0.03359892  0.28422170  0.55908910    -0.56500
C29         C  0.20244644  0.26731411  0.58945743    -0.02400
C30         C  0.29960611  0.05080582  0.43288997    -0.02400
O31         O  0.48674787  0.77438237  0.41524313    -0.57700
C32         C  0.48908683  0.83492260  0.53493932     0.74900
O33         O  0.47064350  0.72099873  0.55172158    -0.58900
C34         C  0.49223973  0.74063866  0.39891952     0.74900
C35         C  0.54056906  0.74577891  0.51024912     0.77300
Cd36       Cd  0.49399346  0.75762793  0.49421960     1.37500
O37         O  0.48579625  0.82977039  0.49284688    -0.57700
O38         O  0.52657424  0.72123965  0.52664476    -0.56500
C39         C  0.45294155  0.72595451  0.52918506     0.77200
O40         O  0.53281421  0.77365561  0.48611648    -0.58900
O41         O  0.49499078  0.80447397  0.55701796    -0.57400
O42         O  0.49857218  0.71426573  0.42693698    -0.57400
O43         O  0.45512493  0.74119119  0.49030789    -0.56500
C44         C  0.79843329  0.57471564  0.44464303    -0.02400
C45         C  0.70147963  0.80018394  0.58821961    -0.02400
O46         O  0.97524271  0.70354354  0.61590484    -0.57700
C47         C  0.00595495  0.59914531  0.63913515     0.74900
O48         O  0.96839186  0.66738943  0.51178914    -0.58900
C49         C  0.98959835  0.73072370  0.61972193     0.74900
C50         C  0.03915626  0.65596351  0.52042341     0.77300
Cd51       Cd  0.99777840  0.65806260  0.56999995     1.37500
O52         O  0.99181181  0.62658703  0.64544448    -0.57700
O53         O  0.03657884  0.67562980  0.55680385    -0.56500
C54         C  0.95920244  0.63402266  0.51971975     0.77200
O55         O  0.02178941  0.64051562  0.50384595    -0.58900
O56         O  0.01661497  0.60035528  0.60216739    -0.57400
O57         O  0.00678192  0.72699695  0.59504120    -0.57400
O58         O  0.96883709  0.61171537  0.54800027    -0.56500
C59         C  0.29172666  0.77567442  0.59316061    -0.02400
C60         C  0.19450835  0.55328178  0.45166943    -0.02400
O61         O  0.49966237  0.76315139  0.03812690    -0.57700
C62         C  0.50111983  0.81414438  0.93177920     0.74900
O63         O  0.53665766  0.70910366  0.91546352    -0.58900
C64         C  0.49794898  0.73007279  0.05869699     0.74900
C65         C  0.46173470  0.70313866  0.93401676     0.77300
Cd66       Cd  0.50394874  0.73421658  0.96243763     1.37500
O67         O  0.49786214  0.80463615  0.97290723    -0.57700
O68         O  0.47430622  0.68242847  0.95914224    -0.56500
C69         C  0.55072103  0.71923305  0.94525067     0.77200
O70         O  0.47029616  0.73373372  0.91629566    -0.58900
O71         O  0.50531351  0.78588563  0.90442396    -0.57400
O72         O  0.49874404  0.69872944  0.03443504    -0.57400
O73         O  0.54270269  0.73110990  0.98253918    -0.56500
C74         C  0.79944023  0.57976579  0.09857582    -0.02400
C75         C  0.71214713  0.80169279  0.93313641    -0.02400
O76         O  0.01588388  0.68007757  0.90887425    -0.57700
C77         C  0.98978129  0.58973045  0.90945959     0.74900
O78         O  0.02652194  0.60832108  0.02300226    -0.58900
C79         C  0.00756816  0.71450231  0.91458776     0.74900
C80         C  0.96085992  0.64616714  0.03051397     0.77300
Cd81       Cd  0.00103764  0.64922107  0.97588866     1.37500
O82         O  0.00891725  0.59117128  0.92688771    -0.57700
O83         O  0.97360742  0.61648230  0.02467133    -0.56500
C84         C  0.04167542  0.63415265  0.02589696     0.77200
O85         O  0.96803982  0.67922760  0.01565510    -0.58900
O86         O  0.97652606  0.61756394  0.92025714    -0.57400
O87         O  0.99692875  0.72021769  0.95141048    -0.57400
O88         O  0.03714707  0.66820695  0.00986913    -0.56500
C89         C  0.19968293  0.55168518  0.10049726    -0.02400
C90         C  0.29816627  0.76910016  0.94213634    -0.02400
O91         O  0.51454032  0.19158579  0.92809574    -0.57700
C92         C  0.50389465  0.09809675  0.93998893     0.74900
O93         O  0.53881006  0.18925368  0.02684294    -0.58900
C94         C  0.50973412  0.22795505  0.93448192     0.74900
C95         C  0.45876520  0.15996376  0.03721357     0.77300
Cd96       Cd  0.50286161  0.16619843  0.99900042     1.37500
O97         O  0.52048295  0.10823130  0.96327263    -0.57700
O98         O  0.46409583  0.18861037  0.01140530    -0.56500
C99         C  0.54167642  0.16056677  0.05401211     0.77200
O100        O  0.47459394  0.13811635  0.05064253    -0.58900
O101        O  0.48689633  0.12006451  0.94364752    -0.57400
O102        O  0.50165439  0.23726834  0.97312467    -0.57400
O103        O  0.52493563  0.13906202  0.06240791    -0.56500
C104        C  0.78969136  0.29631436  0.95977981    -0.02400
C105        C  0.69930817  0.06806319  0.10495754    -0.02400
O106        O  0.98903613  0.29845724  0.08772905    -0.57700
C107        C  0.97756759  0.32710107  0.96521907     0.74900
O108        O  0.02439715  0.21510643  0.99909734    -0.58900
C109        C  0.99459044  0.26979363  0.11334424     0.74900
C110        C  0.94937664  0.22040991  0.00704997     0.77300
Cd111      Cd  0.99118582  0.25941230  0.01712075     1.37500
O112        O  0.98222889  0.32935496  0.00704069    -0.57700
O113        O  0.95631842  0.23365856  0.04444879    -0.56500
C114        C  0.03687820  0.24483362  0.99111789     0.77200
O115        O  0.96359797  0.21814698  0.97509004    -0.58900
O116        O  0.97972519  0.29313508  0.94670681    -0.57400
O117        O  0.99890895  0.23675122  0.09395881    -0.57400
O118        O  0.02781883  0.27881094  0.99400779    -0.56500
C119        C  0.30051716  0.05646524  0.08045086    -0.02400
C120        C  0.20307305  0.27732582  0.93392451    -0.07200
C121        C  0.21755503  0.24273219  0.95571192    -0.19800
C122        C  0.24122496  0.24206948  0.95196752     0.36400
C123        C  0.25369503  0.20971469  0.96914378    -0.25800
C124        C  0.24337159  0.17683578  0.98960790     0.02900
C125        C  0.22005516  0.17566264  0.99126511     0.27700
C126        C  0.20759394  0.20763437  0.97376596    -0.24900
N127        N  0.25279070  0.27385844  0.92967373    -0.82300
H128        H  0.27166768  0.21061304  0.96698806     0.13500
C129        C  0.25691992  0.14476607  0.01150889     0.02800
N130        N  0.20901691  0.14146301  0.01027736    -0.80900
H131        H  0.18991465  0.20324328  0.97303514     0.18300
C132        C  0.25393909  0.13746762  0.05782266    -0.25700
C133        C  0.26668681  0.10895972  0.08116545     0.36300
C134        C  0.28299563  0.08526807  0.05752302    -0.19700
C135        C  0.28562472  0.09325675  0.01038052    -0.25000
C136        C  0.27280717  0.12209673  0.98752897     0.27700
H137        H  0.24198816  0.15533151  0.07677572     0.13500
N138        N  0.26362164  0.10693350  0.12927702    -0.82200
H139        H  0.29819191  0.07717462  0.99106412     0.18300
N140        N  0.27591341  0.12805124  0.93979497    -0.80800
H141        H  0.24696424  0.10028540  0.13602540     0.33900
H142        H  0.26703228  0.13501161  0.14314374     0.38400
H143        H  0.29249845  0.13584414  0.93415005     0.33900
H144        H  0.27303852  0.10085192  0.92335611     0.30600
H145        H  0.19175654  0.14518275  0.00982739     0.33900
H146        H  0.21268799  0.11691214  0.98951777     0.30600
H147        H  0.26445067  0.28555862  0.95218032     0.38500
H148        H  0.26146385  0.26175776  0.90196131     0.34000
C149        C  0.17753548  0.26752076  0.93968634    -0.19800
C150        C  0.16178204  0.26273647  0.90376945     0.36400
C151        C  0.13971509  0.25266659  0.91365467    -0.25800
C152        C  0.13173435  0.25078160  0.95813932     0.02900
C153        C  0.14639063  0.25793923  0.99416112     0.27700
C154        C  0.16888363  0.26619942  0.98467901    -0.24900
N155        N  0.16687838  0.27181028  0.85743781    -0.82300
H156        H  0.12818154  0.24895552  0.88584414     0.13500
C157        C  0.10735425  0.24740374  0.96543486     0.02800
N158        N  0.13829947  0.25765282  0.04018238    -0.80900
H159        H  0.18000226  0.27148804  0.01281474     0.18300
C160        C  0.09823389  0.21447454  0.98832371    -0.25700
C161        C  0.07502746  0.21123473  0.99516835     0.36300
C162        C  0.06088418  0.24197349  0.97933829    -0.19700
C163        C  0.07018225  0.27412886  0.95542616    -0.25000
C164        C  0.09312661  0.27729268  0.94852250     0.27700
H165        H  0.10924792  0.19137443  0.00083408     0.13500
N166        N  0.06599262  0.17781530  0.01945189    -0.82200
H167        H  0.05946879  0.29767775  0.94288733     0.18300
N168        N  0.10213286  0.31125912  0.92504192    -0.80800
H169        H  0.07873551  0.15882752  0.03024505     0.33900
H170        H  0.05650030  0.16130649  0.99656378     0.38400
H171        H  0.08944590  0.33041405  0.91439186     0.33900
H172        H  0.11170375  0.32736247  0.94818464     0.30600
H173        H  0.15122732  0.26329138  0.06282663     0.33900
H174        H  0.12699400  0.28125946  0.04377335     0.30600
H175        H  0.15655755  0.29518894  0.84699404     0.38500
H176        H  0.16319739  0.24673668  0.83763925     0.34000
C177        C  0.81338275  0.27843822  0.96838509    -0.19800
C178        C  0.83262518  0.29947219  0.95355959     0.36400
C179        C  0.85386177  0.28275903  0.95872880    -0.25800
C180        C  0.85683973  0.24538120  0.97894191     0.02900
C181        C  0.83820536  0.22421451  0.99451410     0.27700
C182        C  0.81682972  0.24046613  0.98870074    -0.24900
N183        N  0.83069808  0.33839215  0.93384576    -0.82300
H184        H  0.86824106  0.29952438  0.94748213     0.13500
C185        C  0.87974405  0.22980687  0.98523196     0.02800
N186        N  0.84106155  0.18583109  0.01551049    -0.80900
H187        H  0.80306333  0.22174964  0.99807770     0.18300
C188        C  0.88768111  0.22419479  0.02932555    -0.25700
C189        C  0.91020610  0.21614014  0.03705403     0.36300
C190        C  0.92525718  0.21393388  0.00003549    -0.19700
C191        C  0.91682815  0.21552388  0.95567130    -0.25000
C192        C  0.89417374  0.22351486  0.94793057     0.27700
H193        H  0.87657939  0.22829075  0.05811074     0.13500
N194        N  0.91787843  0.21227544  0.08277707    -0.82200
H195        H  0.92814842  0.21361575  0.92698427     0.18300
N196        N  0.88588708  0.22686532  0.90245090    -0.80800
H197        H  0.90920455  0.18886695  0.09808672     0.33900
H198        H  0.91392502  0.23860828  0.10027939     0.38400
H199        H  0.89861600  0.22164365  0.87880859     0.33900
H200        H  0.87420485  0.20421456  0.89786841     0.30600
H201        H  0.82574316  0.17409579  0.02565481     0.33900
H202        H  0.84760529  0.16635981  0.99100778     0.30600
H203        H  0.83982765  0.35838701  0.95357724     0.38500
H204        H  0.83783379  0.33744628  0.90140066     0.34000
C205        C  0.71123719  0.10402556  0.08039812    -0.19800
C206        C  0.73452139  0.11000335  0.08336395     0.36400
C207        C  0.74461076  0.14304360  0.06230544    -0.25800
C208        C  0.73226204  0.17123638  0.03767587     0.02900
C209        C  0.70937842  0.16427185  0.03157046     0.27700
C210        C  0.69944359  0.13039542  0.05134279    -0.24900
N211        N  0.74811790  0.08304958  0.10863651    -0.82300
H212        H  0.76239295  0.14687855  0.06570388     0.13500
C213        C  0.74377000  0.20749016  0.01889660     0.02800
N214        N  0.69611665  0.19187178  0.00591350    -0.80900
H215        H  0.68219483  0.12504129  0.04360310     0.18300
C216        C  0.74112085  0.21886841  0.97334815    -0.25700
C217        C  0.75323459  0.25091483  0.95429166     0.36300
C218        C  0.77071395  0.26893711  0.97962984    -0.19700
C219        C  0.77079720  0.26093981  0.02682345    -0.25000
C220        C  0.75771241  0.23079855  0.04648558     0.27700
H221        H  0.72965891  0.20250590  0.95219992     0.13500
N222        N  0.74749194  0.26487427  0.90981390    -0.82200
H223        H  0.78239454  0.27634481  0.04832244     0.18300
N224        N  0.75890173  0.22323247  0.09444391    -0.80800
H225        H  0.73457645  0.24803097  0.89610063     0.33900
H226        H  0.74142005  0.29401446  0.91337249     0.38400
H227        H  0.77004474  0.24272594  0.11001263     0.33900
H228        H  0.74323221  0.22939655  0.10841020     0.30600
H229        H  0.67959944  0.18240142  0.00437231     0.33900
H230        H  0.69598896  0.21909070  0.02335879     0.30600
H231        H  0.76023972  0.07135546  0.08670119     0.38500
H232        H  0.75618731  0.09929664  0.13396829     0.34000
C233        C  0.56410167  0.14927863  0.06946549    -0.19800
C234        C  0.56789041  0.13132773  0.11198068     0.36400
C235        C  0.58894530  0.11479437  0.12124989    -0.25800
C236        C  0.60594635  0.11544825  0.08843985     0.02900
C237        C  0.60224270  0.13377305  0.04622106     0.27700
C238        C  0.58142608  0.15084916  0.03733487    -0.24900
N239        N  0.55040077  0.13000368  0.14537231    -0.82300
H240        H  0.59213194  0.10129085  0.15395948     0.13500
C241        C  0.62826240  0.09984981  0.09932125     0.02800
N242        N  0.61954564  0.13422208  0.01227245    -0.80900
H243        H  0.57839444  0.16383494  0.00427227     0.18300
C244        C  0.63467970  0.06165173  0.08491863    -0.25700
C245        C  0.65683344  0.04844097  0.08880085     0.36300
C246        C  0.67346268  0.07522252  0.10491595    -0.19700
C247        C  0.66582644  0.11187222  0.12392076    -0.25000
C248        C  0.64372626  0.12459051  0.12059652     0.27700
H249        H  0.62239948  0.04197437  0.07022484     0.13500
N250        N  0.66164929  0.00757738  0.07807019    -0.82200
H251        H  0.67761212  0.13235847  0.13861836     0.18300
N252        N  0.63705007  0.16321861  0.13742968    -0.80800
H253        H  0.65681925  0.00227158  0.04456442     0.33900
H254        H  0.65182287  0.98953495  0.09894918     0.38400
H255        H  0.65038397  0.17763731  0.15292494     0.33900
H256        H  0.63260044  0.18072809  0.10957102     0.30600
H257        H  0.61399011  0.14812563  0.98269237     0.33900
H258        H  0.63254918  0.15167101  0.02464019     0.30600
H259        H  0.54660092  0.15946094  0.15452047     0.38500
H260        H  0.55590329  0.11577459  0.17479768     0.34000
C261        C  0.32403483  0.07485297  0.06769145    -0.19800
C262        C  0.32874702  0.11650726  0.07365359     0.36400
C263        C  0.35035886  0.13119562  0.06721972    -0.25800
C264        C  0.36790259  0.10592650  0.05498042     0.02900
C265        C  0.36346755  0.06570457  0.04516573     0.27700
C266        C  0.34164524  0.05115926  0.04961487    -0.24900
N267        N  0.31192298  0.14402478  0.08864861    -0.82300
H268        H  0.35361383  0.16252259  0.07357434     0.13500
C269        C  0.39085261  0.12204563  0.05240475     0.02800
N270        N  0.38125283  0.03962991  0.03087095    -0.80900
H271        H  0.33901503  0.02082832  0.03903658     0.18300
C272        C  0.40696821  0.10817703  0.08279715    -0.25700
C273        C  0.42905851  0.12180193  0.08050534     0.36300
C274        C  0.43512766  0.15015255  0.04713757    -0.19700
C275        C  0.41867581  0.16499035  0.01786070    -0.25000
C276        C  0.39672674  0.15079318  0.01971254     0.27700
H277        H  0.40229599  0.08627101  0.10809566     0.13500
N278        N  0.44536315  0.10637293  0.11136394    -0.82200
H279        H  0.42319807  0.18616461  0.99167668     0.18300
N280        N  0.38054534  0.16435725  0.98748885    -0.80800
H281        H  0.43826586  0.08529079  0.13314985     0.33900
H282        H  0.45059406  0.13008428  0.13174836     0.38400
H283        H  0.38752154  0.18536144  0.96545964     0.33900
H284        H  0.37609166  0.13984366  0.96751425     0.30600
H285        H  0.37545448  0.01057507  0.02573094     0.33900
H286        H  0.38706723  0.04979982  0.99948185     0.30600
H287        H  0.31037663  0.16636701  0.06411572     0.38500
H288        H  0.31713402  0.15744071  0.11881751     0.34000
C289        C  0.29748934  0.81087866  0.96747831    -0.19800
C290        C  0.27720464  0.83173768  0.97567117     0.36400
C291        C  0.27712958  0.87003150  0.99605807    -0.25800
C292        C  0.29695806  0.88972400  0.00745794     0.02900
C293        C  0.31717034  0.86890669  0.00067850     0.27700
C294        C  0.31700962  0.82939451  0.98411417    -0.24900
N295        N  0.25647957  0.81432300  0.96287159    -0.82300
H296        H  0.26131706  0.88457005  0.00257698     0.13500
C297        C  0.29653712  0.93155317  0.02693680     0.02800
N298        N  0.33800954  0.88824035  0.00959623    -0.80900
H299        H  0.33270536  0.81387246  0.98380637     0.18300
C300        C  0.30964529  0.94100506  0.06472357    -0.25700
C301        C  0.31126242  0.98029287  0.08157319     0.36300
C302        C  0.29880892  0.01219155  0.06175601    -0.19700
C303        C  0.28419877  0.00133500  0.02618170    -0.25000
C304        C  0.28359641  0.96237847  0.00791429     0.27700
H305        H  0.31907031  0.91766305  0.08129613     0.13500
N306        N  0.32585215  0.98761098  0.11893247    -0.82200
H307        H  0.27288403  0.02259516  0.01153860     0.18300
N308        N  0.27009857  0.95468775  0.96903059    -0.80800
H309        H  0.32062520  0.97009752  0.14628723     0.33900
H310        H  0.34185704  0.97828951  0.10962312     0.38400
H311        H  0.25365548  0.96194247  0.97740478     0.33900
H312        H  0.27524332  0.97367085  0.94290720     0.30600
H313        H  0.35138942  0.86910445  0.00260574     0.33900
H314        H  0.33945890  0.91217457  0.98707104     0.30600
H315        H  0.24657516  0.81187654  0.99201973     0.38500
H316        H  0.24853282  0.83379527  0.94047697     0.34000
C317        C  0.20595245  0.31934910  0.95831763    -0.19800
C318        C  0.19107263  0.35175876  0.94948844     0.36400
C319        C  0.19254931  0.38803980  0.97355582    -0.25800
C320        C  0.21009098  0.39637221  0.00330746     0.02900
C321        C  0.22559588  0.36506473  0.01122031     0.27700
C322        C  0.22242929  0.32676860  0.99142090    -0.24900
N323        N  0.17421450  0.34833828  0.91565201    -0.82300
H324        H  0.17971789  0.41020183  0.96805109     0.13500
C325        C  0.21130935  0.43739184  0.02601628     0.02800
N326        N  0.24491065  0.37218492  0.03845266    -0.80900
H327        H  0.23345054  0.30322209  0.00187980     0.18300
C328        C  0.21811009  0.44144249  0.07146110    -0.25700
C329        C  0.21771544  0.47861270  0.09429010     0.36300
C330        C  0.20704700  0.51235152  0.07434421    -0.19700
C331        C  0.20315095  0.50949948  0.02717444    -0.25000
C332        C  0.20528370  0.47304521  0.00297767     0.27700
H333        H  0.22371542  0.41563973  0.09019420     0.13500
N334        N  0.22928503  0.48181540  0.13647636    -0.82200
H335        H  0.19711410  0.53560604  0.00944587     0.18300
N336        N  0.20118804  0.47232503  0.95497146    -0.80800
H337        H  0.22307531  0.46024771  0.15873521     0.33900
H338        H  0.24603289  0.47513086  0.13039844     0.38400
H339        H  0.19683726  0.50070880  0.94323658     0.33900
H340        H  0.21608600  0.46446417  0.93873061     0.30600
H341        H  0.25475980  0.34647115  0.04064724     0.33900
H342        H  0.25451750  0.39362684  0.02176736     0.30600
H343        H  0.15875104  0.35278298  0.93133723     0.38500
H344        H  0.17650988  0.37105352  0.89183367     0.34000
C345        C  0.28213123  0.73988076  0.96913137    -0.19800
C346        C  0.28486079  0.73168337  0.01623293     0.36400
C347        C  0.27150951  0.70279002  0.03853542    -0.25800
C348        C  0.25513957  0.68091845  0.01535484     0.02900
C349        C  0.25154432  0.69038297  0.96913533     0.27700
C350        C  0.26403830  0.72067456  0.94780165    -0.24900
N351        N  0.30150451  0.75223834  0.04163173    -0.82300
H352        H  0.27410198  0.69733288  0.07433547     0.13500
C353        C  0.24139099  0.64912229  0.03927530     0.02800
N354        N  0.23550500  0.66840100  0.94321838    -0.80900
H355        H  0.25954137  0.72824265  0.91353623     0.18300
C356        C  0.21833274  0.64844044  0.03304337    -0.25700
C357        C  0.20490953  0.61706252  0.04903697     0.36300
C358        C  0.21376935  0.58688996  0.07843107    -0.19700
C359        C  0.23717781  0.58737438  0.08377763    -0.25000
C360        C  0.25090242  0.61774759  0.06492319     0.27700
H361        H  0.21054732  0.67176368  0.01322323     0.13500
N362        N  0.18281838  0.61494642  0.03142459    -0.82200
H363        H  0.24487406  0.56358891  0.10301330     0.18300
N364        N  0.27454944  0.61623637  0.07108655    -0.80800
H365        H  0.17452123  0.64160324  0.03935801     0.33900
H366        H  0.18384279  0.61264917  0.99606446     0.38400
H367        H  0.27898451  0.59155878  0.09080462     0.33900
H368        H  0.28188424  0.61197343  0.03917891     0.30600
H369        H  0.23476130  0.67881648  0.90980490     0.33900
H370        H  0.24097389  0.63878630  0.94136575     0.30600
H371        H  0.31222140  0.73099262  0.05560485     0.38500
H372        H  0.29361943  0.76743972  0.06832492     0.34000
C373        C  0.98233692  0.55474702  0.88311007    -0.19800
C374        C  0.99768627  0.52582607  0.86737273     0.36400
C375        C  0.99067277  0.48613492  0.86244655    -0.25800
C376        C  0.96875592  0.47539546  0.87335519     0.02900
C377        C  0.95276551  0.50559391  0.88036750     0.27700
C378        C  0.95962827  0.54530329  0.88444719    -0.24900
N379        N  0.02061422  0.53613066  0.86045016    -0.82300
H380        H  0.00295344  0.46302453  0.85594524     0.13500
C381        C  0.96510129  0.43495555  0.89198458     0.02800
N382        N  0.92996831  0.49543507  0.88825327    -0.80900
H383        H  0.94748547  0.56760491  0.89473533     0.18300
C384        C  0.95956940  0.43232942  0.93823123    -0.25700
C385        C  0.96220926  0.39667118  0.96196321     0.36300
C386        C  0.97063999  0.36270931  0.93932029    -0.19700
C387        C  0.97405364  0.36412328  0.89201590    -0.25000
C388        C  0.97145405  0.40019662  0.86807859     0.27700
H389        H  0.95476537  0.45888083  0.95706604     0.13500
N390        N  0.95693756  0.39550662  0.00945999    -0.82200
H391        H  0.98002362  0.33779515  0.87421100     0.18300
N392        N  0.97625809  0.40226959  0.82028075    -0.80800
H393        H  0.94024148  0.40357793  0.01358676     0.33900
H394        H  0.96661855  0.41685759  0.02599245     0.38400
H395        H  0.98083071  0.37415367  0.80773406     0.33900
H396        H  0.96156845  0.41033283  0.80384776     0.30600
H397        H  0.92540045  0.50582494  0.92052623     0.33900
H398        H  0.92033766  0.51065182  0.86444311     0.30600
H399        H  0.02123925  0.55672799  0.83384797     0.38500
H400        H  0.02976514  0.51118576  0.84975226     0.34000
C401        C  0.06386562  0.62399320  0.04441031    -0.19800
C402        C  0.08348809  0.63777372  0.02304201     0.36400
C403        C  0.10419706  0.62275981  0.03690897    -0.25800
C404        C  0.10583546  0.59525059  0.07246393     0.02900
C405        C  0.08644496  0.58313665  0.09565370     0.27700
C406        C  0.06557143  0.59693613  0.08067275    -0.24900
N407        N  0.08231585  0.66546180  0.98590455    -0.82300
H408        H  0.11922897  0.63241036  0.01975684     0.13500
C409        C  0.12822819  0.58027573  0.08473501     0.02800
N410        N  0.08805182  0.55784520  0.13486604    -0.80900
H411        H  0.05056594  0.58660225  0.09735125     0.18300
C412        C  0.14183697  0.60412634  0.11161908    -0.25700
C413        C  0.16437298  0.59473609  0.11774572     0.36300
C414        C  0.17405769  0.56046428  0.09625644    -0.19700
C415        C  0.15936171  0.53479791  0.07268387    -0.25000
C416        C  0.13691099  0.54492069  0.06564750     0.27700
H417        H  0.13514049  0.63131808  0.12646844     0.13500
N418        N  0.17765357  0.62144700  0.14406260    -0.82200
H419        H  0.16494988  0.50641984  0.05957424     0.18300
N420        N  0.12315052  0.52022317  0.03749162    -0.80800
H421        H  0.17083243  0.62302577  0.17677445     0.33900
H422        H  0.17668391  0.64987477  0.12961948     0.38400
H423        H  0.13224335  0.49607077  0.02444380     0.33900
H424        H  0.11065565  0.50809775  0.05791530     0.30600
H425        H  0.07228043  0.55263235  0.14871568     0.33900
H426        H  0.09426114  0.53013834  0.12445715     0.30600
H427        H  0.07696991  0.69288727  0.99915796     0.38500
H428        H  0.09811638  0.67046025  0.97214706     0.34000
C429        C  0.71251331  0.84277349  0.95916930    -0.19800
C430        C  0.69498072  0.85752782  0.98771612     0.36400
C431        C  0.69614806  0.89607507  0.00658811    -0.25800
C432        C  0.71512343  0.91968228  0.00204774     0.02900
C433        C  0.73385697  0.90342467  0.97919241     0.27700
C434        C  0.73243370  0.86520200  0.95910356    -0.24900
N435        N  0.67666843  0.83293644  0.00109825    -0.82300
H436        H  0.68227548  0.90711836  0.02676425     0.13500
C437        C  0.71494284  0.95972164  0.02458332     0.02800
N438        N  0.75451235  0.92462200  0.97546156    -0.80900
H439        H  0.74686742  0.85360762  0.94122833     0.18300
C440        C  0.72442530  0.96418499  0.06749840    -0.25700
C441        C  0.72147152  0.99945690  0.09310391     0.36300
C442        C  0.70707191  0.03036483  0.07712970    -0.19700
C443        C  0.70051501  0.02758918  0.03110376    -0.25000
C444        C  0.70389078  0.99254711  0.00519130     0.27700
H445        H  0.73412034  0.93986400  0.08148556     0.13500
N446        N  0.73406412  0.00383597  0.13388280    -0.82200
H447        H  0.69118468  0.05193976  0.01628050     0.18300
N448        N  0.69549512  0.98966624  0.95975962    -0.80800
H449        H  0.73076295  0.97949085  0.15495645     0.33900
H450        H  0.75091730  0.00224625  0.12517876     0.38400
H451        H  0.68757954  0.01626269  0.95050363     0.33900
H452        H  0.70914096  0.98625038  0.93791583     0.30600
H453        H  0.75744352  0.93000068  0.94100651     0.33900
H454        H  0.75363636  0.95252251  0.99125914     0.30600
H455        H  0.67700439  0.82984160  0.03640294     0.38500
H456        H  0.66190747  0.84771259  0.99282932     0.34000
C457        C  0.79542378  0.53764618  0.07527699    -0.19800
C458        C  0.81199190  0.51325969  0.05342316     0.36400
C459        C  0.80639451  0.47599331  0.03469406    -0.25800
C460        C  0.78544987  0.45872427  0.04082600     0.02900
C461        C  0.76939276  0.48066197  0.06558474     0.27700
C462        C  0.77415244  0.51987628  0.08067779    -0.24900
N463        N  0.83503795  0.52350461  0.05292960    -0.82300
H464        H  0.81931450  0.45888351  0.01756970     0.13500
C465        C  0.78274898  0.41576542  0.02645006     0.02800
N466        N  0.74877272  0.46257086  0.07823594    -0.80900
H467        H  0.76127061  0.53606851  0.09894997     0.18300
C468        C  0.79841509  0.38817623  0.04221356    -0.25700
C469        C  0.80061842  0.34972524  0.02346771     0.36300
C470        C  0.78690704  0.33741680  0.98633328    -0.19700
C471        C  0.76859186  0.36281056  0.97698823    -0.25000
C472        C  0.76721889  0.40227136  0.99395597     0.27700
H473        H  0.80972297  0.39706202  0.06887033     0.13500
N474        N  0.81631108  0.32331960  0.04429882    -0.82200
H475        H  0.75620819  0.35320115  0.95287100     0.18300
N476        N  0.75085910  0.42840792  0.97502661    -0.80800
H477        H  0.81198591  0.32022595  0.07855251     0.33900
H478        H  0.83200889  0.33653052  0.04270656     0.38400
H479        H  0.73975729  0.43716221  0.00048096     0.33900
H480        H  0.75884600  0.45369152  0.96221635     0.30600
H481        H  0.74780092  0.46219469  0.11368812     0.33900
H482        H  0.73588533  0.48075155  0.06646058     0.30600
H483        H  0.84383349  0.50149422  0.07046638     0.38500
H484        H  0.84066477  0.52321724  0.01924964     0.34000
C485        C  0.82393174  0.59538665  0.09247100    -0.19800
C486        C  0.83256717  0.60548886  0.04871559     0.36400
C487        C  0.85495312  0.61643106  0.04334883    -0.25800
C488        C  0.86903346  0.61963555  0.08068945     0.02900
C489        C  0.86024984  0.61487333  0.12456630     0.27700
C490        C  0.83790623  0.60352051  0.13006560    -0.24900
N491        N  0.81889751  0.60322308  0.00917709    -0.82300
H492        H  0.86150747  0.62169167  0.00953657     0.13500
C493        C  0.89306414  0.62687207  0.07304048     0.02800
N494        N  0.87394443  0.62244668  0.16346038    -0.80900
H495        H  0.83164970  0.60200715  0.16434153     0.18300
C496        C  0.90087221  0.66597037  0.06779172    -0.25700
C497        C  0.92324899  0.67334041  0.05648846     0.36300
C498        C  0.93816145  0.64102750  0.05023501    -0.19700
C499        C  0.93036387  0.60196297  0.05764150    -0.25000
C500        C  0.90800046  0.59456639  0.06872405     0.27700
H501        H  0.88941321  0.69084699  0.07141571     0.13500
N502        N  0.93055991  0.71362460  0.05055717    -0.82200
H503        H  0.94151992  0.57679930  0.05289290     0.18300
N504        N  0.90015824  0.55427482  0.07359034    -0.80800
H505        H  0.92750417  0.72914345  0.08082688     0.33900
H506        H  0.92094419  0.72671279  0.02514107     0.38400
H507        H  0.91311128  0.53385349  0.06813250     0.33900
H508        H  0.89496126  0.55051152  0.10720184     0.30600
H509        H  0.86487701  0.61860212  0.19352522     0.33900
H510        H  0.88664417  0.60108789  0.16377023     0.30600
H511        H  0.81832716  0.63161139  0.99450260     0.38500
H512        H  0.82637781  0.58381088  0.98576840     0.34000
C513        C  0.78481865  0.61409887  0.07742437    -0.19800
C514        C  0.78644758  0.65419613  0.09388917     0.36400
C515        C  0.77510957  0.68562018  0.07245396    -0.25800
C516        C  0.76223195  0.67904312  0.03393667     0.02900
C517        C  0.76048877  0.63993867  0.01659871     0.27700
C518        C  0.77153384  0.60803810  0.03843298    -0.24900
N519        N  0.79986001  0.66342038  0.13249950    -0.82300
H520        H  0.77661501  0.71567839  0.08578845     0.13500
C521        C  0.75088435  0.71353385  0.01169003     0.02800
N522        N  0.74786983  0.63292951  0.97611389    -0.80900
H523        H  0.77043138  0.57884102  0.02307609     0.18300
C524        C  0.76013061  0.72960447  0.97197375    -0.25700
C525        C  0.74943277  0.76048142  0.94794105     0.36300
C526        C  0.72795054  0.77406073  0.96184950    -0.19700
C527        C  0.72069892  0.76191003  0.00549477    -0.25000
C528        C  0.73133297  0.73125683  0.02971896     0.27700
H529        H  0.77596003  0.71826855  0.95963437     0.13500
N530        N  0.76112814  0.77894912  0.91112477    -0.82200
H531        H  0.70540418  0.77400336  0.01938487     0.18300
N532        N  0.72136151  0.71841190  0.07170979    -0.80800
H533        H  0.76545383  0.75680328  0.88753580     0.33900
H534        H  0.77584344  0.79095519  0.92384448     0.38400
H535        H  0.70569409  0.70690388  0.06418645     0.33900
H536        H  0.73030227  0.69523686  0.08670266     0.30600
H537        H  0.74842446  0.60272159  0.96707890     0.33900
H538        H  0.73125631  0.63970914  0.98346172     0.30600
H539        H  0.81190221  0.68407146  0.12248937     0.38500
H540        H  0.78973477  0.67700625  0.15711721     0.34000
C541        C  0.50414139  0.06111133  0.91269815    -0.19800
C542        C  0.48427234  0.04377415  0.89672064     0.36400
C543        C  0.48437993  0.00337868  0.88426237    -0.25800
C544        C  0.50384191  0.98065719  0.88748292     0.02900
C545        C  0.52421623  0.99928036  0.89670824     0.27700
C546        C  0.52420022  0.03968655  0.90890037    -0.24900
N547        N  0.46377537  0.06598227  0.89690197    -0.82300
H548        H  0.46885077  0.98855587  0.87675509     0.13500
C549        C  0.50152676  0.93792499  0.89650717     0.02800
N550        N  0.54445195  0.97625001  0.89767883    -0.80900
H551        H  0.53962139  0.05333937  0.91946133     0.18300
C552        C  0.50520472  0.90971108  0.86223684    -0.25700
C553        C  0.50487675  0.86869273  0.87226054     0.36300
C554        C  0.50045143  0.85632453  0.91746094    -0.19700
C555        C  0.49598578  0.88511138  0.95101337    -0.25000
C556        C  0.49674036  0.92572209  0.94115502     0.27700
H557        H  0.50892039  0.91976009  0.82809332     0.13500
N558        N  0.50929449  0.83997405  0.83694136    -0.82200
H559        H  0.49246852  0.87605351  0.98558956     0.18300
N560        N  0.49299242  0.95484016  0.97647952    -0.80800
H561        H  0.51090598  0.85415525  0.80551546     0.33900
H562        H  0.52475955  0.82699172  0.84360071     0.38400
H563        H  0.48913159  0.94088629  0.00721592     0.33900
H564        H  0.50790820  0.97003371  0.98165764     0.30600
H565        H  0.55799936  0.99461900  0.90479793     0.33900
H566        H  0.54330222  0.95596859  0.92450300     0.30600
H567        H  0.46540844  0.08883751  0.87301816     0.38500
H568        H  0.45064030  0.04811743  0.88595910     0.34000
C569        C  0.57523614  0.72015586  0.93779321    -0.19800
C570        C  0.58511126  0.72200893  0.89405968     0.36400
C571        C  0.60798267  0.73089017  0.88986929    -0.25800
C572        C  0.62108727  0.73756658  0.92840187     0.02900
C573        C  0.61136178  0.73467399  0.97170530     0.27700
C574        C  0.58877137  0.72567597  0.97606989    -0.24900
N575        N  0.57180540  0.71694592  0.85416490    -0.82300
H576        H  0.61552839  0.73350163  0.85651164     0.13500
C577        C  0.64447364  0.75090398  0.92377373     0.02800
N578        N  0.62419723  0.74295825  0.01139920    -0.80900
H579        H  0.58159657  0.72479815  0.00989434     0.18300
C580        C  0.64885585  0.78918668  0.90744642    -0.25700
C581        C  0.67028207  0.80553497  0.90969459     0.36300
C582        C  0.68812522  0.78358892  0.92956598    -0.19700
C583        C  0.68367137  0.74324587  0.94105138    -0.25000
C584        C  0.66213600  0.72741868  0.93954018     0.27700
H585        H  0.63533618  0.80725914  0.89449392     0.13500
N586        N  0.67352675  0.84520961  0.89319245    -0.82200
H587        H  0.69679697  0.72304423  0.95086462     0.18300
N588        N  0.65822149  0.68730409  0.95420340    -0.80800
H589        H  0.66265402  0.86441094  0.91056031     0.33900
H590        H  0.66921605  0.84564219  0.85887287     0.38400
H591        H  0.66818542  0.66822215  0.93454622     0.33900
H592        H  0.66334455  0.68495383  0.98794307     0.30600
H593        H  0.61675285  0.76693139  0.02860901     0.33900
H594        H  0.62352505  0.71795983  0.03252354     0.30600
H595        H  0.56642403  0.68731947  0.85362786     0.38500
H596        H  0.58144660  0.72087700  0.82485246     0.34000
C597        C  0.43757056  0.69586469  0.92973163    -0.19800
C598        C  0.42455894  0.68874308  0.96891376     0.36400
C599        C  0.40151214  0.69579346  0.96774464    -0.25800
C600        C  0.39090472  0.70806098  0.92773674     0.02900
C601        C  0.40369692  0.71103718  0.88734551     0.27700
C602        C  0.42692024  0.70584952  0.88905903    -0.24900
N603        N  0.43501231  0.67785564  0.01083911    -0.82300
H604        H  0.39201646  0.69384657  0.99900485     0.13500
C605        C  0.36708476  0.72139278  0.92990188     0.02800
N606        N  0.39316682  0.72054905  0.84504878    -0.80900
H607        H  0.43688574  0.71127284  0.85893601     0.18300
C608        C  0.36108646  0.75794185  0.91041540    -0.25700
C609        C  0.33934649  0.77294133  0.91345925     0.36300
C610        C  0.32272042  0.75250785  0.93923784    -0.19700
C611        C  0.32893154  0.71512059  0.95784853    -0.25000
C612        C  0.35061535  0.69939966  0.95312755     0.27700
H613        H  0.37349626  0.77563286  0.89295609     0.13500
N614        N  0.33436113  0.80962663  0.89061058    -0.82200
H615        H  0.31682493  0.69660058  0.97458788     0.18300
N616        N  0.35583295  0.66066469  0.97121374    -0.80800
H617        H  0.34512137  0.83169324  0.90246637     0.33900
H618        H  0.33752801  0.80553040  0.85594926     0.38400
H619        H  0.34202165  0.64830450  0.98758504     0.33900
H620        H  0.35970946  0.64189658  0.94384912     0.30600
H621        H  0.40489809  0.72192827  0.81876157     0.33900
H622        H  0.38244959  0.69707544  0.83718471     0.30600
H623        H  0.44171651  0.64926144  0.00654448     0.38500
H624        H  0.42323213  0.67569033  0.03701062     0.34000
C625        C  0.20244803  0.54701000  0.15341836    -0.19800
C626        C  0.18984372  0.51765068  0.17749797     0.36400
C627        C  0.19025120  0.51576998  0.22507881    -0.25800
C628        C  0.20237153  0.54305806  0.25076254     0.02900
C629        C  0.21521416  0.57196581  0.22810514     0.27700
C630        C  0.21518708  0.57368845  0.18010701    -0.24900
N631        N  0.17620971  0.48966812  0.15368505    -0.82300
H632        H  0.18042833  0.49326698  0.24225062     0.13500
C633        C  0.19998838  0.54291443  0.30128822     0.02800
N634        N  0.22774162  0.60034559  0.25407062    -0.80900
H635        H  0.22410628  0.59786568  0.16443706     0.18300
C636        C  0.21771063  0.53088807  0.32878253    -0.25700
C637        C  0.21606736  0.53156814  0.37656466     0.36300
C638        C  0.19636032  0.54657973  0.39853071    -0.19700
C639        C  0.17805086  0.55459395  0.36961206    -0.25000
C640        C  0.17986239  0.55427966  0.32231558     0.27700
H641        H  0.23303356  0.52075047  0.31292558     0.13500
N642        N  0.23492995  0.51736821  0.40129002    -0.82200
H643        H  0.16169104  0.56094358  0.38295457     0.18300
N644        N  0.16099511  0.56689530  0.29648304    -0.80800
H645        H  0.23053775  0.49157853  0.41896015     0.33900
H646        H  0.24031140  0.53912816  0.42397914     0.38400
H647        H  0.16577566  0.59070374  0.27573074     0.33900
H648        H  0.15579692  0.54330817  0.27597993     0.30600
H649        H  0.23645874  0.61963909  0.23262487     0.33900
H650        H  0.21643530  0.61796315  0.27245295     0.30600
H651        H  0.15980488  0.49344131  0.16488548     0.38500
H652        H  0.18127906  0.46079311  0.16234295     0.34000
C653        C  0.28684645  0.77832277  0.64576289    -0.19800
C654        C  0.27303659  0.75194377  0.67171142     0.36400
C655        C  0.27175249  0.75556712  0.71932313    -0.25800
C656        C  0.28482387  0.78274077  0.74340878     0.02900
C657        C  0.29913000  0.80781154  0.71872356     0.27700
C658        C  0.29984506  0.80567648  0.67104889    -0.24900
N659        N  0.26170471  0.71892656  0.65161855    -0.82300
H660        H  0.26125256  0.73506159  0.73802589     0.13500
C661        C  0.28569681  0.78009253  0.79416227     0.02800
N662        N  0.31395200  0.83408540  0.74194964    -0.80900
H663        H  0.31127790  0.82520993  0.65335696     0.18300
C664        C  0.29055145  0.74316118  0.81390616    -0.25700
C665        C  0.29333955  0.73901793  0.86091248     0.36300
C666        C  0.29124955  0.77265278  0.89065218    -0.19700
C667        C  0.28547955  0.80960285  0.87017763    -0.25000
C668        C  0.28252207  0.81334641  0.82287194     0.27700
H669        H  0.29294687  0.71717146  0.79237685     0.13500
N670        N  0.29895530  0.70031502  0.87815221    -0.82200
H671        H  0.28415071  0.83664857  0.88992324     0.18300
N672        N  0.27627408  0.85116223  0.80417172    -0.80800
H673        H  0.28645637  0.68038021  0.86881931     0.33900
H674        H  0.31376421  0.69096247  0.86258378     0.38400
H675        H  0.26121459  0.85989398  0.81915251     0.33900
H676        H  0.28830563  0.87207375  0.81332007     0.30600
H677        H  0.33022068  0.82640804  0.73264647     0.33900
H678        H  0.31088042  0.86315529  0.73068129     0.30600
H679        H  0.24482244  0.72127506  0.65990165     0.38500
H680        H  0.26768385  0.69254747  0.66608934     0.34000
C681        C  0.27720933  0.74410459  0.56720565    -0.19800
C682        C  0.25364424  0.74747007  0.56532363     0.36400
C683        C  0.24081965  0.71641865  0.54656950    -0.25800
C684        C  0.25087433  0.68261130  0.52697060     0.02900
C685        C  0.27417737  0.68128982  0.52322530     0.27700
C686        C  0.28694294  0.71229924  0.54194318    -0.24900
N687        N  0.24256803  0.78179640  0.58388572    -0.82300
H688        H  0.22285634  0.71873538  0.54739105     0.13500
C689        C  0.23694672  0.64967415  0.50828232     0.02800
N690        N  0.28485229  0.64823469  0.50051553    -0.80900
H691        H  0.30465826  0.71091802  0.53642004     0.18300
C692        C  0.23660756  0.64326090  0.46146748    -0.25700
C693        C  0.22344897  0.61332833  0.44176651     0.36300
C694        C  0.21122682  0.58594701  0.46971393    -0.19700
C695        C  0.21117272  0.59424920  0.51705681    -0.25000
C696        C  0.22386123  0.62522366  0.53641921     0.27700
H697        H  0.24597695  0.66306083  0.43953603     0.13500
N698        N  0.22153221  0.61372209  0.39339003    -0.82200
H699        H  0.20077356  0.57651071  0.53927225     0.18300
N700        N  0.22334391  0.63213493  0.58459948    -0.80800
H701        H  0.23742913  0.61048578  0.37924902     0.33900
H702        H  0.21522786  0.64150876  0.38356163     0.38400
H703        H  0.21276337  0.61186655  0.60063685     0.33900
H704        H  0.23931733  0.62657645  0.59698702     0.30600
H705        H  0.30209603  0.65172945  0.50021278     0.33900
H706        H  0.28156989  0.62251982  0.51946304     0.30600
H707        H  0.23120855  0.77233377  0.60854902     0.38500
H708        H  0.23358390  0.79534607  0.55782763     0.34000
C709        C  0.98771658  0.76107642  0.65633222    -0.19800
C710        C  0.00546082  0.78713381  0.66624585     0.36400
C711        C  0.00849696  0.79996365  0.71135692    -0.25800
C712        C  0.99421688  0.78671772  0.74604456     0.02900
C713        C  0.97438239  0.76724621  0.73422155     0.27700
C714        C  0.97102936  0.75546060  0.68923603    -0.24900
N715        N  0.02139538  0.79730908  0.63167683    -0.82300
H716        H  0.02345971  0.81594469  0.72034391     0.13500
C717        C  0.00298545  0.78086312  0.79249221     0.02800
N718        N  0.95901359  0.75471364  0.76866737    -0.80900
H719        H  0.95679340  0.73689343  0.68183906     0.18300
C720        C  0.99077335  0.79419077  0.83046705    -0.25700
C721        C  0.99360070  0.77609374  0.87325372     0.36300
C722        C  0.00904353  0.74437698  0.87761775    -0.19700
C723        C  0.02342313  0.73566102  0.84119005    -0.25000
C724        C  0.02026495  0.75292139  0.79866102     0.27700
H725        H  0.97762760  0.81596642  0.82573874     0.13500
N726        N  0.97962856  0.78750527  0.91088423    -0.82200
H727        H  0.03579562  0.71221588  0.84425605     0.18300
N728        N  0.03305261  0.73860949  0.76068393    -0.80800
H729        H  0.96869823  0.81031994  0.90143465     0.33900
H730        H  0.98990680  0.79951632  0.93587604     0.38400
H731        H  0.04985588  0.74324044  0.76763280     0.33900
H732        H  0.03048192  0.70785747  0.75756812     0.30600
H733        H  0.94337480  0.76638141  0.76080681     0.33900
H734        H  0.95799687  0.72355093  0.76765547     0.30600
H735        H  0.01300097  0.81377215  0.60695566     0.38500
H736        H  0.03361528  0.81605436  0.64484374     0.34000
C737        C  0.17131259  0.57194226  0.46507213    -0.19800
C738        C  0.15581573  0.55586515  0.49702450     0.36400
C739        C  0.13444821  0.57260917  0.50110721    -0.25800
C740        C  0.12841930  0.60695656  0.47717354     0.02900
C741        C  0.14447152  0.62658708  0.45077568     0.27700
C742        C  0.16570783  0.60951576  0.44588630    -0.24900
N743        N  0.16171393  0.52459932  0.52778030    -0.82300
H744        H  0.12254382  0.55911806  0.52414052     0.13500
C745        C  0.10539624  0.62253594  0.48166351     0.02800
N746        N  0.13899947  0.66328055  0.42814416    -0.80900
H747        H  0.17762173  0.62443425  0.42421446     0.18300
C748        C  0.10162122  0.65930152  0.50324327    -0.25700
C749        C  0.07990561  0.67264227  0.51289853     0.36300
C750        C  0.06162831  0.64841228  0.50111786    -0.19700
C751        C  0.06545229  0.61302808  0.47644299    -0.25000
C752        C  0.08718736  0.59986109  0.46660340     0.27700
H753        H  0.11569688  0.67693336  0.51402774     0.13500
N754        N  0.07637735  0.71017808  0.53567140    -0.82200
H755        H  0.05152844  0.59442812  0.46702853     0.18300
N756        N  0.09092679  0.56300702  0.44252859    -0.80800
H757        H  0.09153200  0.72412324  0.54225359     0.33900
H758        H  0.06775137  0.72881093  0.51339895     0.38400
H759        H  0.07581175  0.54973990  0.43403370     0.33900
H760        H  0.09891885  0.56990864  0.41193429     0.30600
H761        H  0.15274554  0.67413327  0.41021771     0.33900
H762        H  0.12680998  0.65691261  0.40409160     0.30600
H763        H  0.15036513  0.50128288  0.52397911     0.38500
H764        H  0.16012463  0.53558912  0.56090190     0.34000
C765        C  0.71910961  0.80335682  0.88157809    -0.19800
C766        C  0.71975728  0.83832405  0.85368805     0.36400
C767        C  0.72108147  0.83465961  0.80606997    -0.25800
C768        C  0.72169052  0.79737611  0.78466673     0.02900
C769        C  0.72307380  0.76283646  0.81134103     0.27700
C770        C  0.72118433  0.76604927  0.85878420    -0.24900
N771        N  0.71746262  0.87772309  0.87207951    -0.82300
H772        H  0.72011303  0.86135280  0.78542266     0.13500
C773        C  0.71727468  0.79493863  0.73506817     0.02800
N774        N  0.72536478  0.72439659  0.78992850    -0.80900
H775        H  0.72061396  0.73875523  0.87835594     0.18300
C776        C  0.73353671  0.80607579  0.70336437    -0.25700
C777        C  0.72884342  0.80726079  0.65650029     0.36300
C778        C  0.70705472  0.79871470  0.64034942    -0.19700
C779        C  0.69158282  0.78433325  0.67289414    -0.25000
C780        C  0.69620718  0.78339786  0.71929690     0.27700
H781        H  0.74994517  0.81419677  0.71504641     0.13500
N782        N  0.74623637  0.81773854  0.62534840    -0.82200
H783        H  0.67560027  0.77289953  0.66317445     0.18300
N784        N  0.67885328  0.77134959  0.74986364    -0.80800
H785        H  0.75900755  0.79668336  0.62854741     0.33900
H786        H  0.75256294  0.84554031  0.63476050     0.38400
H787        H  0.68397863  0.74582480  0.76724112     0.33900
H788        H  0.67603209  0.79428317  0.77338627     0.30600
H789        H  0.74070523  0.72390852  0.77301901     0.33900
H790        H  0.72595225  0.70177435  0.81426916     0.30600
H791        H  0.73164153  0.89390030  0.86310513     0.38500
H792        H  0.70384671  0.89173114  0.85694075     0.34000
C793        C  0.79196282  0.57465998  0.39284457    -0.19800
C794        C  0.79557474  0.60864840  0.36473621     0.36400
C795        C  0.79277639  0.60612975  0.31750058    -0.25800
C796        C  0.78568306  0.57088789  0.29663781     0.02900
C797        C  0.77923935  0.53853476  0.32437395     0.27700
C798        C  0.78212317  0.54102165  0.37166396    -0.24900
N799        N  0.80319415  0.64550851  0.38353918    -0.82300
H800        H  0.79700371  0.63168618  0.29669370     0.13500
C801        C  0.78630591  0.56857830  0.24605575     0.02800
N802        N  0.76972120  0.50268743  0.30597160    -0.80900
H803        H  0.77669953  0.51566184  0.39129744     0.18300
C804        C  0.80189417  0.54366063  0.22451409    -0.25700
C805        C  0.80527484  0.54507868  0.17721812     0.36300
C806        C  0.79339276  0.57311064  0.15018250    -0.19700
C807        C  0.77562250  0.59379192  0.17189190    -0.25000
C808        C  0.77248024  0.59276742  0.21932934     0.27700
H809        H  0.81213334  0.52396257  0.24477738     0.13500
N810        N  0.82165913  0.51927099  0.15712282    -0.82200
H811        H  0.76421377  0.61174030  0.15246181     0.18300
N812        N  0.75548744  0.61673373  0.24067420    -0.80800
H813        H  0.81708970  0.48977006  0.16378504     0.33900
H814        H  0.83688745  0.52450981  0.17289754     0.38400
H815        H  0.74680846  0.63332152  0.21648980     0.33900
H816        H  0.74403543  0.59731594  0.25560208     0.30600
H817        H  0.75374934  0.49988807  0.31975824     0.33900
H818        H  0.76764348  0.50464739  0.27091186     0.30600
H819        H  0.79157789  0.66773683  0.37578665     0.38500
H820        H  0.81825072  0.65295327  0.36786941     0.34000
C821        C  0.82397801  0.58016979  0.45161171    -0.19800
C822        C  0.83317747  0.57958536  0.49604177     0.36400
C823        C  0.85583140  0.58725307  0.50245405    -0.25800
C824        C  0.86998412  0.59488013  0.46565733     0.02900
C825        C  0.86163346  0.59215951  0.42113810     0.27700
C826        C  0.83905377  0.58420330  0.41472595    -0.24900
N827        N  0.81932414  0.57303027  0.53505696    -0.82300
H828        H  0.86233539  0.58812521  0.53666857     0.13500
C829        C  0.89344107  0.60478085  0.47503000     0.02800
N830        N  0.87556090  0.59625392  0.38153437    -0.80900
H831        H  0.83376432  0.58054946  0.38009657     0.18300
C832        C  0.90780123  0.57434717  0.48907565    -0.25700
C833        C  0.92980676  0.58268675  0.50138834     0.36300
C834        C  0.93755790  0.62256409  0.49974148    -0.19700
C835        C  0.92328720  0.65275858  0.48400544    -0.25000
C836        C  0.90120686  0.64433814  0.47207737     0.27700
H837        H  0.90164707  0.54402840  0.49109824     0.13500
N838        N  0.94411193  0.55089605  0.51633110    -0.82200
H839        H  0.92901106  0.68337632  0.48316050     0.18300
N840        N  0.88632301  0.67602539  0.45933200    -0.80800
H841        H  0.93566430  0.52366256  0.51650974     0.33900
H842        H  0.95697943  0.54803664  0.49251698     0.38400
H843        H  0.89440877  0.70358023  0.46058561     0.33900
H844        H  0.88191261  0.67151084  0.42548743     0.30600
H845        H  0.87022543  0.62157330  0.36394269     0.33900
H846        H  0.89217009  0.60087880  0.38992383     0.30600
H847        H  0.82060948  0.59774603  0.55661659     0.38500
H848        H  0.82543455  0.54806982  0.55227219     0.34000
C849        C  0.78497050  0.61058493  0.46693727    -0.19800
C850        C  0.79448049  0.64694931  0.48426078     0.36400
C851        C  0.78095751  0.67627523  0.50474580    -0.25800
C852        C  0.75793048  0.67249050  0.50713119     0.02900
C853        C  0.74807739  0.63879238  0.48713245     0.27700
C854        C  0.76144463  0.60927447  0.46612204    -0.24900
N855        N  0.81747197  0.65674333  0.47838452    -0.82300
H856        H  0.78863968  0.70299764  0.51820050     0.13500
C857        C  0.74451670  0.70531127  0.52844067     0.02800
N858        N  0.72441063  0.63465641  0.48746970    -0.80900
H859        H  0.75329827  0.58414951  0.45015079     0.18300
C860        C  0.74631500  0.74444630  0.51195757    -0.25700
C861        C  0.73408634  0.77639956  0.53123905     0.36300
C862        C  0.71829902  0.76906203  0.56658138    -0.19700
C863        C  0.71813268  0.72974351  0.58484148    -0.25000
C864        C  0.73107744  0.69852945  0.56666727     0.27700
H865        H  0.75763760  0.75046453  0.48405710     0.13500
N866        N  0.73886709  0.81586838  0.51573537    -0.82200
H867        H  0.70724836  0.72280393  0.61314180     0.18300
N868        N  0.73089668  0.66010149  0.58789472    -0.80800
H869        H  0.75568241  0.82155468  0.52144494     0.33900
H870        H  0.73622163  0.81676275  0.48068679     0.38400
H871        H  0.73599824  0.66371848  0.62152601     0.33900
H872        H  0.71453605  0.64976843  0.58838138     0.30600
H873        H  0.71909448  0.63247203  0.45385787     0.33900
H874        H  0.72053900  0.60786652  0.50382310     0.30600
H875        H  0.81857488  0.68304200  0.45945661     0.38500
H876        H  0.82423055  0.66250179  0.51034105     0.34000
C877        C  0.49131555  0.73307470  0.34947399    -0.19800
C878        C  0.50706040  0.70842362  0.32702100     0.36400
C879        C  0.50667825  0.70554570  0.27937744    -0.25800
C880        C  0.49087801  0.72662384  0.25412581     0.02900
C881        C  0.47438407  0.74932262  0.27655250     0.27700
C882        C  0.47488761  0.75259833  0.32404799    -0.24900
N883        N  0.52385138  0.68769815  0.35235247    -0.82300
H884        H  0.51918926  0.68793944  0.26170080     0.13500
C885        C  0.49279842  0.72719321  0.20415641     0.02800
N886        N  0.45718933  0.76879017  0.25100740    -0.80900
H887        H  0.46251552  0.77081156  0.34132434     0.18300
C888        C  0.48301207  0.69681546  0.17849666    -0.25700
C889        C  0.48434418  0.69706652  0.13079856     0.36300
C890        C  0.49567540  0.72845464  0.10866905    -0.19700
C891        C  0.50547646  0.75875054  0.13466101    -0.25000
C892        C  0.50436383  0.75820421  0.18223721     0.27700
H893        H  0.47419773  0.67308314  0.19577609     0.13500
N894        N  0.47392510  0.66604452  0.10485139    -0.82200
H895        H  0.51443006  0.78254823  0.11779951     0.18300
N896        N  0.51544464  0.78835225  0.20846859    -0.80800
H897        H  0.46654337  0.64504307  0.12633706     0.33900
H898        H  0.46104636  0.67926113  0.08657126     0.38400
H899        H  0.52374327  0.80835589  0.18716346     0.33900
H900        H  0.50335700  0.80495965  0.22587795     0.30600
H901        H  0.44606105  0.78355000  0.27277398     0.33900
H902        H  0.46455510  0.79078169  0.23091303     0.30600
H903        H  0.53416166  0.70918316  0.36693784     0.38500
H904        H  0.53390851  0.67053116  0.33068782     0.34000
C905        C  0.43042934  0.71826835  0.54764648    -0.19800
C906        C  0.41281864  0.70940389  0.51795812     0.36400
C907        C  0.39077798  0.71403482  0.53269113    -0.25800
C908        C  0.38591122  0.72797408  0.57647532     0.02900
C909        C  0.40332205  0.73401920  0.60736695     0.27700
C910        C  0.42550610  0.72859804  0.59293656    -0.24900
N911        N  0.41727888  0.69749942  0.47203413    -0.82300
H912        H  0.37740472  0.70918951  0.50885962     0.13500
C913        C  0.36295991  0.74173511  0.58621620     0.02800
N914        N  0.39856663  0.74791032  0.65241857    -0.80900
H915        H  0.43884162  0.73590354  0.61601625     0.18300
C916        C  0.34758870  0.71627931  0.60662971    -0.25700
C917        C  0.32501492  0.72709266  0.61014647     0.36300
C918        C  0.31714995  0.76392093  0.59154168    -0.19700
C919        C  0.33356259  0.79058547  0.57506959    -0.25000
C920        C  0.35597925  0.77945135  0.57137852     0.27700
H921        H  0.35301161  0.68737864  0.61889774     0.13500
N922        N  0.31002137  0.69984455  0.63158507    -0.82200
H923        H  0.32947143  0.82069342  0.56512248     0.18300
N924        N  0.37172722  0.80652536  0.55188210    -0.80800
H925        H  0.31532733  0.69538122  0.66491460     0.33900
H926        H  0.31100379  0.67245233  0.61453973     0.38400
H927        H  0.36652374  0.81339278  0.51900676     0.33900
H928        H  0.37144906  0.83284895  0.57103488     0.30600
H929        H  0.40531434  0.72739234  0.67524861     0.33900
H930        H  0.40666617  0.77516570  0.65701728     0.30600
H931        H  0.40979300  0.66980105  0.46660702     0.38500
H932        H  0.40976647  0.71825041  0.45048729     0.34000
C933        C  0.56468825  0.74392127  0.52009675    -0.19800
C934        C  0.58036259  0.76101561  0.48993342     0.36400
C935        C  0.60250366  0.76535251  0.50363491    -0.25800
C936        C  0.60936386  0.75297076  0.54665134     0.02900
C937        C  0.59417043  0.73385438  0.57588474     0.27700
C938        C  0.57191517  0.72931339  0.56221275    -0.24900
N939        N  0.57366999  0.77456329  0.44578260    -0.82300
H940        H  0.61441846  0.77944225  0.48110982     0.13500
C941        C  0.63242245  0.76187645  0.56050401     0.02800
N942        N  0.60128790  0.72013963  0.61963252    -0.80900
H943        H  0.55998104  0.71610379  0.58535204     0.18300
C944        C  0.63651825  0.79552173  0.58728152    -0.25700
C945        C  0.65831073  0.80803850  0.59627887     0.36300
C946        C  0.67692199  0.78616079  0.57891976    -0.19700
C947        C  0.67215767  0.75299227  0.55036940    -0.25000
C948        C  0.65034625  0.74018009  0.54225088     0.27700
H949        H  0.62264167  0.81289114  0.60039646     0.13500
N950        N  0.66143161  0.84316782  0.62328996    -0.82200
H951        H  0.68516782  0.73702072  0.53266282     0.18300
N952        N  0.64624791  0.70562862  0.51447515    -0.80800
H953        H  0.65364673  0.86708171  0.60700626     0.33900
H954        H  0.65350617  0.83895837  0.65460981     0.38400
H955        H  0.66118792  0.69284737  0.50325192     0.33900
H956        H  0.63851804  0.68428257  0.53499463     0.30600
H957        H  0.58804849  0.70703481  0.63719385     0.33900
H958        H  0.61311219  0.69762247  0.61427073     0.30600
H959        H  0.56864022  0.74953073  0.42729086     0.38500
H960        H  0.58713400  0.78682917  0.42813696     0.34000
C961        C  0.29752978  0.05392286  0.13389511    -0.19800
C962        C  0.28052214  0.03072151  0.15595236     0.36400
C963        C  0.28002351  0.02694046  0.20366161    -0.25800
C964        C  0.29481700  0.04779784  0.23172575     0.02900
C965        C  0.31013540  0.07375753  0.21062502     0.27700
C966        C  0.31232267  0.07411184  0.16324265    -0.24900
N967        N  0.26333686  0.01049812  0.13155248    -0.82300
H968        H  0.26810162  0.00666935  0.21856343     0.13500
C969        C  0.29539648  0.04163213  0.28255284     0.02800
N970        N  0.32360178  0.10014545  0.23750149    -0.80900
H971        H  0.32605085  0.09097012  0.15052103     0.18300
C972        C  0.31611738  0.04041385  0.30389016    -0.25700
C973        C  0.31831719  0.04388549  0.35104051     0.36300
C974        C  0.29901882  0.04471370  0.37982740    -0.19700
C975        C  0.27851383  0.03697536  0.35825826    -0.25000
C976        C  0.27630800  0.03847967  0.31049344     0.27700
H977        H  0.33114365  0.03872297  0.28348337     0.13500
N978        N  0.34046316  0.04658348  0.36836350    -0.82200
H979        H  0.26363128  0.03351885  0.37873610     0.18300
N980        N  0.25457814  0.03871901  0.29108748    -0.80800
H981        H  0.34796266  0.07184009  0.35424711     0.33900
H982        H  0.34952243  0.02174133  0.35703037     0.38400
H983        H  0.24645974  0.01265084  0.30121925     0.33900
H984        H  0.24580792  0.06308582  0.30455396     0.30600
H985        H  0.33400971  0.11750720  0.21712666     0.33900
H986        H  0.31286956  0.11999125  0.25436640     0.30600
H987        H  0.25649913  0.02939609  0.10715639     0.38500
H988        H  0.26964834  0.98472172  0.11629982     0.34000
C989        C  0.29645135  0.00756270  0.45348124    -0.19800
C990        C  0.31303839  0.97707730  0.45087178     0.36400
C991        C  0.30974198  0.93965739  0.47172374    -0.25800
C992        C  0.28962479  0.92969021  0.49311797     0.02900
C993        C  0.27224785  0.95799203  0.49197963     0.27700
C994        C  0.27564739  0.99581380  0.47213365    -0.24900
N995        N  0.33353038  0.98355208  0.42736819    -0.82300
H996        H  0.32328522  0.91823498  0.47138139     0.13500
C997        C  0.28727505  0.88997280  0.51677341     0.02800
N998        N  0.25080294  0.94818884  0.51000346    -0.80900
H999        H  0.26152477  0.01585765  0.47129375     0.18300
C1000       C  0.27903079  0.88818454  0.56145071    -0.25700
C1001       C  0.27820126  0.85199675  0.58596439     0.36300
C1002       C  0.28759484  0.81629917  0.56714140    -0.19700
C1003       C  0.29353758  0.81785563  0.52048709    -0.25000
C1004       C  0.29361192  0.85380200  0.49568845     0.27700
H1005       H  0.27319349  0.91527465  0.57788310     0.13500
N1006       N  0.26672194  0.85203849  0.62867713    -0.82200
H1007       H  0.29937530  0.79098198  0.50358264     0.18300
N1008       N  0.30010371  0.85328696  0.44882744    -0.80800
H1009       H  0.27411720  0.87331344  0.64971106     0.33900
H1010       H  0.25031511  0.86108391  0.62312260     0.38400
H1011       H  0.31621717  0.84164447  0.44656530     0.33900
H1012       H  0.28949536  0.83389330  0.43157440     0.30600
H1013       H  0.24676022  0.96916809  0.53509942     0.33900
H1014       H  0.23920951  0.95093016  0.48389518     0.30600
H1015       H  0.33487449  0.96219430  0.40152796     0.38500
H1016       H  0.34659802  0.97869306  0.44994471     0.34000
C1017       C  0.20947930  0.27229060  0.64024784    -0.19800
C1018       C  0.22902956  0.25636091  0.66068634     0.36400
C1019       C  0.23129205  0.25703258  0.70835679    -0.25800
C1020       C  0.21535469  0.27561717  0.73623762     0.02900
C1021       C  0.19744906  0.29579930  0.71606185     0.27700
C1022       C  0.19498946  0.29465952  0.66873837    -0.24900
N1023       N  0.24713719  0.24117097  0.63391743    -0.82300
H1024       H  0.24574631  0.24331770  0.72367791     0.13500
C1025       C  0.21713744  0.27415468  0.78657735     0.02800
N1026       N  0.18127668  0.31616696  0.74396995    -0.80900
H1027       H  0.18047941  0.30878609  0.65431915     0.18300
C1028       C  0.22139057  0.30925106  0.81075180    -0.25700
C1029       C  0.21884330  0.31117471  0.85824925     0.36300
C1030       C  0.21039418  0.27760228  0.88260649    -0.19700
C1031       C  0.20919794  0.24101998  0.85811928    -0.25000
C1032       C  0.21206160  0.23928612  0.81073041     0.27700
H1033       H  0.22636254  0.33579135  0.79238967     0.13500
N1034       N  0.22562877  0.34696911  0.88071333    -0.82200
H1035       H  0.20405675  0.21405384  0.87540461     0.18300
N1036       N  0.20842239  0.20254942  0.78696716    -0.80800
H1037       H  0.21682189  0.37095349  0.86688048     0.33900
H1038       H  0.24250706  0.35136760  0.87381688     0.38400
H1039       H  0.21944055  0.18121178  0.79977714     0.33900
H1040       H  0.19224960  0.19305766  0.79412327     0.30600
H1041       H  0.16922008  0.32999861  0.72393000     0.33900
H1042       H  0.17301852  0.29459694  0.76321261     0.30600
H1043       H  0.26121288  0.25819522  0.64109207     0.38500
H1044       H  0.25037885  0.21185264  0.64414220     0.34000
C1045       C  0.20255729  0.31148038  0.57075805    -0.19800
C1046       C  0.22254627  0.33330582  0.56445331     0.36400
C1047       C  0.22208484  0.37234807  0.54620675    -0.25800
C1048       C  0.20193621  0.39251193  0.53790307     0.02900
C1049       C  0.18200538  0.37331570  0.55064517     0.27700
C1050       C  0.18249579  0.33352827  0.56603871    -0.24900
N1051       N  0.24348177  0.31576372  0.57603934    -0.82300
H1052       H  0.23769579  0.38668653  0.53812127     0.13500
C1053       C  0.20152817  0.43302500  0.51532276     0.02800
N1054       N  0.16123219  0.39469464  0.54900278    -0.80900
H1055       H  0.16684470  0.32065271  0.57633090     0.18300
C1056       C  0.18654164  0.44006225  0.47988845    -0.25700
C1057       C  0.18422727  0.47788733  0.45966967     0.36300
C1058       C  0.19784403  0.51056529  0.47319415    -0.19700
C1059       C  0.21424432  0.50206687  0.50625695    -0.25000
C1060       C  0.21552675  0.46468890  0.52837133     0.27700
H1061       H  0.17602684  0.41601760  0.46817162     0.13500
N1062       N  0.16729279  0.48316347  0.42627131    -0.82200
H1063       H  0.22627125  0.52419076  0.51595649     0.18300
N1064       N  0.23066464  0.45964040  0.56521706    -0.80800
H1065       H  0.17044373  0.46322591  0.39960447     0.33900
H1066       H  0.15198041  0.47574835  0.44089673     0.38400
H1067       H  0.24670251  0.46547297  0.55318898     0.33900
H1068       H  0.22676776  0.48094552  0.59008182     0.30600
H1069       H  0.14806142  0.37658752  0.55950561     0.33900
H1070       H  0.16210360  0.41822254  0.57232092     0.30600
H1071       H  0.25076823  0.33370665  0.60087521     0.38500
H1072       H  0.25383004  0.31626037  0.54742341     0.34000
C1073       C  0.28134369  0.08010773  0.45273359    -0.19800
C1074       C  0.28007480  0.08660653  0.50055241     0.36400
C1075       C  0.26653674  0.11675830  0.51882020    -0.25800
C1076       C  0.25279809  0.14041257  0.49163554     0.02900
C1077       C  0.25304993  0.13364056  0.44425732     0.27700
C1078       C  0.26760434  0.10468065  0.42540875    -0.24900
N1079       N  0.29302959  0.06309248  0.53123500    -0.82300
H1080       H  0.26714372  0.12203756  0.55508813     0.13500
C1081       C  0.23898166  0.17248643  0.51401704     0.02800
N1082       N  0.23870394  0.15639484  0.41518726    -0.80900
H1083       H  0.26877114  0.10350884  0.38896591     0.18300
C1084       C  0.23800924  0.21121333  0.49587670    -0.25700
C1085       C  0.22584321  0.24210741  0.51738040     0.36300
C1086       C  0.21675415  0.23630202  0.56173836    -0.19700
C1087       C  0.21737608  0.19672707  0.57859101    -0.25000
C1088       C  0.22735268  0.16497119  0.55479389     0.27700
H1089       H  0.24633521  0.21762264  0.46405319     0.13500
N1090       N  0.22151736  0.27759182  0.49192231    -0.82200
H1091       H  0.20956020  0.19020932  0.61075707     0.18300
N1092       N  0.22534521  0.12486185  0.57168548    -0.80800
H1093       H  0.23670585  0.28953078  0.48134107     0.33900
H1094       H  0.21274363  0.26955233  0.46279915     0.38400
H1095       H  0.21617035  0.12433188  0.60195070     0.33900
H1096       H  0.21628787  0.10852294  0.54789923     0.30600
H1097       H  0.24095888  0.14810359  0.38122552     0.33900
H1098       H  0.22231192  0.14925107  0.42377534     0.30600
H1099       H  0.30314904  0.08230548  0.54991130     0.38500
H1100       H  0.28218212  0.04898687  0.55390109     0.34000
C1101       C  0.99815017  0.27750289  0.40490169    -0.19800
C1102       C  0.99009517  0.24475303  0.37962049     0.36400
C1103       C  0.99068182  0.24619823  0.33215415    -0.25800
C1104       C  0.99918233  0.27942618  0.30917659     0.02900
C1105       C  0.00692586  0.31247796  0.33422424     0.27700
C1106       C  0.00617140  0.31129276  0.38195310    -0.24900
N1107       N  0.98095016  0.21039497  0.40208941    -0.82300
H1108       H  0.98422043  0.22131380  0.31278563     0.13500
C1109       C  0.99945919  0.27872887  0.25883155     0.02800
N1110       N  0.01573102  0.34677602  0.31115425    -0.80900
H1111       H  0.01225102  0.33650697  0.40128511     0.18300
C1112       C  0.98812665  0.30848065  0.23471857    -0.25700
C1113       C  0.98621233  0.30650410  0.18719746     0.36300
C1114       C  0.99611886  0.27417500  0.16333669    -0.19700
C1115       C  0.00764536  0.24474888  0.18768681    -0.25000
C1116       C  0.00952283  0.24677061  0.23501826     0.27700
H1117       H  0.98006956  0.33257689  0.25323640     0.13500
N1118       N  0.97376748  0.33658384  0.16350189    -0.82200
H1119       H  0.01535132  0.21999444  0.16970427     0.18300
N1120       N  0.02152824  0.21635113  0.25912950    -0.80800
H1121       H  0.96806928  0.35862305  0.18600732     0.33900
H1122       H  0.95962889  0.32289462  0.15026291     0.38400
H1123       H  0.02770298  0.19465686  0.23671694     0.33900
H1124       H  0.03529414  0.22987162  0.27408726     0.30600
H1125       H  0.02061590  0.36854270  0.33453070     0.33900
H1126       H  0.03008945  0.33767847  0.29376508     0.30600
H1127       H  0.97625165  0.18868633  0.37850348     0.38500
H1128       H  0.96640100  0.21955909  0.41879972     0.34000
C1129       C  0.98907526  0.37275037  0.64343892    -0.19800
C1130       C  0.00183194  0.37518620  0.68355037     0.36400
C1131       C  0.00434347  0.41247825  0.70504192    -0.25800
C1132       C  0.99390292  0.44656964  0.68767841     0.02900
C1133       C  0.97953340  0.44302566  0.65031112     0.27700
C1134       C  0.97712872  0.40620351  0.62880988    -0.24900
N1135       N  0.01355045  0.34078286  0.70018024    -0.82300
H1136       H  0.01556260  0.41552922  0.73344228     0.13500
C1137       C  0.00220802  0.48656442  0.69933653     0.02800
N1138       N  0.96902619  0.47763877  0.63138712    -0.80900
H1139       H  0.96701729  0.40447339  0.59855347     0.18300
C1140       C  0.02234144  0.49757947  0.67890499    -0.25700
C1141       C  0.02554536  0.53682152  0.66396957     0.36300
C1142       C  0.00830454  0.56507124  0.67046565    -0.19700
C1143       C  0.99051763  0.55578952  0.69973130    -0.25000
C1144       C  0.98733939  0.51634887  0.71415426     0.27700
H1145       H  0.03409323  0.47457396  0.66867560     0.13500
N1146       N  0.04515797  0.54703011  0.63845238    -0.82200
H1147       H  0.97762841  0.57769452  0.70670523     0.18300
N1148       N  0.96776177  0.50566175  0.73912163    -0.80800
H1149       H  0.05590517  0.52249587  0.63582592     0.33900
H1150       H  0.05358029  0.56894132  0.65680790     0.38400
H1151       H  0.96766242  0.52188625  0.76949834     0.33900
H1152       H  0.95389899  0.51443745  0.72035518     0.30600
H1153       H  0.97445355  0.48070250  0.59777512     0.33900
H1154       H  0.95188242  0.47278201  0.63111201     0.30600
H1155       H  0.00164941  0.32048072  0.71171200     0.38500
H1156       H  0.02309793  0.34834083  0.72843037     0.34000
C1157       C  0.17869961  0.24853293  0.58585521    -0.19800
C1158       C  0.16732026  0.22746087  0.62118392     0.36400
C1159       C  0.14497961  0.21705597  0.61567680    -0.25800
C1160       C  0.13393207  0.22472999  0.57514361     0.02900
C1161       C  0.14603696  0.23891766  0.53739409     0.27700
C1162       C  0.16829111  0.24955129  0.54294790    -0.24900
N1163       N  0.17812238  0.21518214  0.66207235    -0.82300
H1164       H  0.13587899  0.20454011  0.64413176     0.13500
C1165       C  0.10954023  0.22755287  0.57672779     0.02800
N1166       N  0.13599281  0.24542168  0.49385257    -0.80900
H1167       H  0.17706637  0.26184884  0.51402736     0.18300
C1168       C  0.10051107  0.26384871  0.59144070    -0.25700
C1169       C  0.07761055  0.27053130  0.59105011     0.36300
C1170       C  0.06336013  0.24010280  0.57524666    -0.19700
C1171       C  0.07234914  0.20284203  0.56254887    -0.25000
C1172       C  0.09550958  0.19633682  0.56289087     0.27700
H1173       H  0.11153631  0.28743115  0.60251028     0.13500
N1174       N  0.06881011  0.30838734  0.60607327    -0.82200
H1175       H  0.06142966  0.17953130  0.55048505     0.18300
N1176       N  0.10482449  0.15869521  0.54874199    -0.80800
H1177       H  0.08159110  0.32761747  0.61577946     0.33900
H1178       H  0.05918801  0.30319811  0.63511657     0.38400
H1179       H  0.09220468  0.13891795  0.53967941     0.33900
H1180       H  0.11427895  0.16366898  0.51940642     0.30600
H1181       H  0.14423550  0.22702040  0.47041316     0.33900
H1182       H  0.11938330  0.23661031  0.49366022     0.30600
H1183       H  0.16921943  0.22686722  0.68971699     0.38500
H1184       H  0.17730547  0.18404831  0.66407543     0.34000
C1185       C  0.69570881  0.08163252  0.40176671    -0.19800
C1186       C  0.71569208  0.09391069  0.37932261     0.36400
C1187       C  0.71826902  0.08813617  0.33218882    -0.25800
C1188       C  0.70133986  0.07173108  0.30556031     0.02900
C1189       C  0.68198145  0.05781218  0.32776658     0.27700
C1190       C  0.68032834  0.06006798  0.37530697    -0.24900
N1191       N  0.73392534  0.11100098  0.40350017    -0.82300
H1192       H  0.73373734  0.09701267  0.31620944     0.13500
C1193       C  0.70392210  0.06953788  0.25477602     0.02800
N1194       N  0.66354341  0.04295823  0.30200065    -0.80900
H1195       H  0.66569380  0.04785272  0.39163275     0.18300
C1196       C  0.69739306  0.03496060  0.23163113    -0.25700
C1197       C  0.69598497  0.03380400  0.18412401     0.36300
C1198       C  0.70415645  0.06593524  0.15722358    -0.19700
C1199       C  0.71206249  0.09979838  0.18110432    -0.25000
C1200       C  0.71134130  0.10243668  0.22891126     0.27700
H1201       H  0.69203152  0.00905373  0.25064310     0.13500
N1202       N  0.68517800  0.00036842  0.16361759    -0.82200
H1203       H  0.71688045  0.12628506  0.16280148     0.18300
N1204       N  0.71695408  0.13936612  0.25100306    -0.80800
H1205       H  0.69320762  0.97421589  0.17391631     0.33900
H1206       H  0.66892685  0.99930045  0.17633228     0.38400
H1207       H  0.72206320  0.16072291  0.22735400     0.33900
H1208       H  0.70249606  0.15056123  0.26637688     0.30600
H1209       H  0.65052423  0.03429815  0.32339633     0.33900
H1210       H  0.65748632  0.06660269  0.28242078     0.30600
H1211       H  0.73729234  0.13902915  0.38956542     0.38500
H1212       H  0.74798633  0.09318888  0.39781889     0.34000
C1213       C  0.70240276  0.84380302  0.56716697    -0.19800
C1214       C  0.70584020  0.88025332  0.59185823     0.36400
C1215       C  0.70470241  0.91759071  0.56982815    -0.25800
C1216       C  0.69899285  0.92123594  0.52412142     0.02900
C1217       C  0.69472533  0.88586566  0.49928444     0.27700
C1218       C  0.69625347  0.84837589  0.52093964    -0.24900
N1219       N  0.70882826  0.88089051  0.63995775    -0.82300
H1220       H  0.70738909  0.94451254  0.58953523     0.13500
C1221       C  0.69640668  0.96250841  0.50471904     0.02800
N1222       N  0.68903466  0.88654535  0.45196371    -0.80900
H1223       H  0.69262794  0.82198120  0.50100880     0.18300
C1224       C  0.71521140  0.98453519  0.49234930    -0.25700
C1225       C  0.71352448  0.02422765  0.47646657     0.36300
C1226       C  0.69251548  0.04400520  0.47375958    -0.19700
C1227       C  0.67362947  0.02035709  0.48445606    -0.25000
C1228       C  0.67538242  0.98071941  0.50061183     0.27700
H1229       H  0.73147458  0.97073282  0.49493330     0.13500
N1230       N  0.73344974  0.04410567  0.46293827    -0.82200
H1231       H  0.65710115  0.03208983  0.47944315     0.18300
N1232       N  0.65578830  0.95907589  0.51368417    -0.80800
H1233       H  0.74427381  0.04446418  0.49054062     0.33900
H1234       H  0.74094255  0.02729394  0.43702085     0.38400
H1235       H  0.64161041  0.97694752  0.51025955     0.33900
H1236       H  0.65398282  0.93524506  0.49107732     0.30600
H1237       H  0.67286935  0.87561247  0.44896890     0.33900
H1238       H  0.68894603  0.91554721  0.43906034     0.30600
H1239       H  0.72362314  0.89590098  0.64694804     0.38500
H1240       H  0.69578274  0.89724343  0.65461934     0.34000
C1241       C  0.78636808  0.30267718  0.65941212    -0.19800
C1242       C  0.77188498  0.27894413  0.68691151     0.36400
C1243       C  0.77169809  0.28336615  0.73453225    -0.25800
C1244       C  0.78686658  0.30788667  0.75713917     0.02900
C1245       C  0.80284461  0.32829924  0.73080091     0.27700
C1246       C  0.80197653  0.32651778  0.68325331    -0.24900
N1247       N  0.75867823  0.24762471  0.66825252    -0.82300
H1248       H  0.76027416  0.26545466  0.75441054     0.13500
C1249       C  0.78749742  0.30688352  0.80806081     0.02800
N1250       N  0.82108826  0.34889504  0.75114360    -0.80900
H1251       H  0.81421679  0.34345582  0.66436847     0.18300
C1252       C  0.79159993  0.27021539  0.82894488    -0.25700
C1253       C  0.79264864  0.26607149  0.87621940     0.36300
C1254       C  0.78899916  0.29986930  0.90588026    -0.19700
C1255       C  0.78608248  0.33715156  0.88358980    -0.25000
C1256       C  0.78417935  0.34075568  0.83610852     0.27700
H1257       H  0.79452922  0.24406740  0.80789611     0.13500
N1258       N  0.79840866  0.22690887  0.89185751    -0.82200
H1259       H  0.78563104  0.36478972  0.90214685     0.18300
N1260       N  0.77778678  0.37901253  0.81820519    -0.80800
H1261       H  0.81486837  0.22657661  0.90256168     0.33900
H1262       H  0.78762243  0.21723907  0.91728489     0.38400
H1263       H  0.79046019  0.39933346  0.82522626     0.33900
H1264       H  0.77565694  0.37815271  0.78310681     0.30600
H1265       H  0.81507062  0.37241226  0.77093974     0.33900
H1266       H  0.82958857  0.32892389  0.77211292     0.30600
H1267       H  0.74217715  0.25226886  0.67832777     0.38500
H1268       H  0.76390966  0.22055928  0.68231086     0.34000
C1269       C  0.79336209  0.53261691  0.46680263    -0.19800
C1270       C  0.80591577  0.49804245  0.45385495     0.36400
C1271       C  0.80272410  0.46124582  0.47579217    -0.25800
C1272       C  0.78598372  0.45576487  0.50857019     0.02900
C1273       C  0.77254102  0.48915071  0.52006470     0.27700
C1274       C  0.77729629  0.52708332  0.50158915    -0.24900
N1275       N  0.82233464  0.50008128  0.41848130    -0.82300
H1276       H  0.81378707  0.43679164  0.46706418     0.13500
C1277       C  0.78381820  0.41588707  0.53226790     0.02800
N1278       N  0.75383712  0.48456940  0.55022125    -0.80900
H1279       H  0.76820713  0.55194259  0.51557809     0.18300
C1280       C  0.77981421  0.41449515  0.57930557    -0.25700
C1281       C  0.77868884  0.37825062  0.60328922     0.36300
C1282       C  0.78495238  0.34172635  0.58168227    -0.19700
C1283       C  0.78760452  0.34313532  0.53380110    -0.25000
C1284       C  0.78641813  0.37909637  0.50901586     0.27700
H1285       H  0.77746592  0.44188004  0.59831401     0.13500
N1286       N  0.77013425  0.37941597  0.64871345    -0.82200
H1287       H  0.79118795  0.31575335  0.51550070     0.18300
N1288       N  0.78785090  0.37816545  0.46027510    -0.80800
H1289       H  0.77986723  0.39906988  0.66768101     0.33900
H1290       H  0.75399477  0.39104522  0.64777423     0.38400
H1291       H  0.78973396  0.34886803  0.44845013     0.33900
H1292       H  0.77270879  0.38863934  0.44770623     0.30600
H1293       H  0.74556004  0.51176525  0.55516392     0.33900
H1294       H  0.74256827  0.46546784  0.53438611     0.30600
H1295       H  0.81820877  0.47938148  0.39331801     0.38500
H1296       H  0.83767520  0.49172379  0.43205752     0.34000
C1297       C  0.81383153  0.28658796  0.59997240    -0.19800
C1298       C  0.82121227  0.24926703  0.61788078     0.36400
C1299       C  0.84338011  0.23707513  0.61278397    -0.25800
C1300       C  0.85885803  0.26140902  0.59108833     0.02900
C1301       C  0.85238830  0.29936486  0.57554913     0.27700
C1302       C  0.83018992  0.31168521  0.58043682    -0.24900
N1303       N  0.80609568  0.22316361  0.64081898    -0.82300
H1304       H  0.84849072  0.20814888  0.62553232     0.13500
C1305       C  0.88195000  0.24725823  0.58466747     0.02800
N1306       N  0.86855527  0.32551532  0.55531574    -0.80900
H1307       H  0.82622259  0.34169293  0.56999222     0.18300
C1308       C  0.89011253  0.24277774  0.54033233    -0.25700
C1309       C  0.91281388  0.23662604  0.53213375     0.36300
C1310       C  0.92756232  0.23497300  0.56915738    -0.19700
C1311       C  0.91907024  0.23523641  0.61364017    -0.25000
C1312       C  0.89628577  0.24173021  0.62181729     0.27700
H1313       H  0.87885399  0.24612965  0.51201820     0.13500
N1314       N  0.92115234  0.23412307  0.48633267    -0.82200
H1315       H  0.93041951  0.23403195  0.64200848     0.18300
N1316       N  0.88787452  0.24495968  0.66748381    -0.80800
H1317       H  0.90817054  0.23636505  0.46306621     0.33900
H1318       H  0.92816550  0.20572778  0.48202734     0.38400
H1319       H  0.90059893  0.24011789  0.69086207     0.33900
H1320       H  0.88236393  0.27431460  0.67237612     0.30600
H1321       H  0.86117712  0.35233678  0.54520626     0.33900
H1322       H  0.88012919  0.33276964  0.58031567     0.30600
H1323       H  0.81201381  0.21838435  0.67365140     0.38500
H1324       H  0.80608739  0.19570906  0.62381339     0.34000
C1325       C  0.77303410  0.27030136  0.58147150    -0.19800
C1326       C  0.74955596  0.27561880  0.58180271     0.36400
C1327       C  0.73559891  0.24648884  0.56227140    -0.25800
C1328       C  0.74449469  0.21307217  0.53957870     0.02900
C1329       C  0.76761963  0.21101577  0.53271746     0.27700
C1330       C  0.78142861  0.23920564  0.55312464    -0.24900
N1331       N  0.73980627  0.31034834  0.60245189    -0.82300
H1332       H  0.71773125  0.24998152  0.56492889     0.13500
C1333       C  0.72966918  0.18182292  0.52037023     0.02800
N1334       N  0.77752690  0.18151910  0.50345030    -0.80900
H1335       H  0.79890303  0.23665206  0.54514408     0.18300
C1336       C  0.71796812  0.18983667  0.48067087    -0.25700
C1337       C  0.70520886  0.16024045  0.45933876     0.36300
C1338       C  0.70458043  0.12039141  0.47668169    -0.19700
C1339       C  0.71560215  0.11353187  0.51825794    -0.25000
C1340       C  0.72780143  0.14360576  0.54013028     0.27700
H1341       H  0.71891581  0.21932440  0.46571219     0.13500
N1342       N  0.69324770  0.17084768  0.41923942    -0.82200
H1343       H  0.71421300  0.08508487  0.53522126     0.18300
N1344       N  0.73745248  0.13496570  0.58336901    -0.80800
H1345       H  0.68214523  0.19385075  0.42765263     0.33900
H1346       H  0.70450227  0.18200497  0.39529886     0.38400
H1347       H  0.75460247  0.13917828  0.58141971     0.33900
H1348       H  0.73097913  0.15525854  0.60709887     0.30600
H1349       H  0.77386317  0.15310869  0.51576522     0.33900
H1350       H  0.77051560  0.18434222  0.47122010     0.30600
H1351       H  0.73100120  0.32571978  0.57746062     0.38500
H1352       H  0.72838710  0.30121232  0.62715111     0.34000
C1353       C  0.49017589  0.27464564  0.67168370    -0.19800
C1354       C  0.51013362  0.29474327  0.68195268     0.36400
C1355       C  0.51462859  0.30482989  0.72744656    -0.25800
C1356       C  0.49974739  0.29445907  0.76239397     0.02900
C1357       C  0.47875714  0.27910669  0.75105596     0.27700
C1358       C  0.47399614  0.27020493  0.70582688    -0.24900
N1359       N  0.52659667  0.30131641  0.64725195    -0.82300
H1360       H  0.53068676  0.31702983  0.73623934     0.13500
C1361       C  0.50797041  0.28915629  0.80933368     0.02800
N1362       N  0.46314176  0.26835205  0.78583947    -0.80900
H1363       H  0.45839040  0.25565316  0.69826976     0.18300
C1364       C  0.49611780  0.30553870  0.84630337    -0.25700
C1365       C  0.49827244  0.28927294  0.89017477     0.36300
C1366       C  0.51254863  0.25623387  0.89648857    -0.19700
C1367       C  0.52677252  0.24436626  0.86096098    -0.25000
C1368       C  0.52434677  0.25992115  0.81743094     0.27700
H1369       H  0.48376057  0.32847584  0.84011501     0.13500
N1370       N  0.48471606  0.30385009  0.92701905    -0.82200
H1371       H  0.53834152  0.21984327  0.86574146     0.18300
N1372       N  0.53692504  0.24283007  0.78066786    -0.80800
H1373       H  0.47464318  0.32743447  0.91618108     0.33900
H1374       H  0.49539868  0.31573760  0.95137122     0.38400
H1375       H  0.55379729  0.24634193  0.78779610     0.33900
H1376       H  0.53356232  0.21223538  0.77932115     0.30600
H1377       H  0.44823375  0.28343953  0.77961386     0.33900
H1378       H  0.46013572  0.23768907  0.78333693     0.30600
H1379       H  0.51990338  0.32169658  0.62421661     0.38500
H1380       H  0.54068602  0.31483452  0.66095134     0.34000
C1381       C  0.48367731  0.07492938  0.62323723    -0.19800
C1382       C  0.50379858  0.05313485  0.62218117     0.36400
C1383       C  0.50320624  0.01156847  0.61805918    -0.25800
C1384       C  0.48289750  0.99169900  0.61472205     0.02900
C1385       C  0.46282867  0.01269892  0.62130042     0.27700
C1386       C  0.46341695  0.05437338  0.62588250    -0.24900
N1387       N  0.52478621  0.07315491  0.62056451    -0.82300
H1388       H  0.51862261  0.99516607  0.61328162     0.13500
C1389       C  0.48298121  0.95122996  0.59547984     0.02800
N1390       N  0.44198540  0.99187436  0.62096020    -0.80900
H1391       H  0.44795318  0.07105188  0.62738339     0.18300
C1392       C  0.48694331  0.91832260  0.62326881    -0.25700
C1393       C  0.48838191  0.87970860  0.60467093     0.36300
C1394       C  0.48637509  0.87445195  0.55700117    -0.19700
C1395       C  0.48210942  0.90781288  0.52960014    -0.25000
C1396       C  0.48043222  0.94602711  0.54847527     0.27700
H1397       H  0.48891817  0.92285258  0.65945549     0.13500
N1398       N  0.49190798  0.84610674  0.63406626    -0.82200
H1399       H  0.48041366  0.90444862  0.49319491     0.18300
N1400       N  0.47655260  0.97979886  0.51976994    -0.80800
H1401       H  0.47748358  0.82883219  0.63337380     0.33900
H1402       H  0.49378840  0.85549149  0.66770675     0.38400
H1403       H  0.48935833  0.98096011  0.49564808     0.33900
H1404       H  0.46162144  0.97521686  0.50262663     0.30600
H1405       H  0.42883084  0.01171668  0.62698345     0.33900
H1406       H  0.43966548  0.98029177  0.58835024     0.30600
H1407       H  0.53283716  0.06527533  0.59023683     0.38500
H1408       H  0.53441550  0.06276463  0.64749726     0.34000
C1409       C  0.55265638  0.16574448  0.50139530    -0.19800
C1410       C  0.56800472  0.19527632  0.48752880     0.36400
C1411       C  0.59021035  0.18418923  0.47752403    -0.25800
C1412       C  0.59748086  0.14447565  0.48214578     0.02900
C1413       C  0.58210770  0.11495164  0.49494023     0.27700
C1414       C  0.55996242  0.12579803  0.50421804    -0.24900
N1415       N  0.56131368  0.23645488  0.48512805    -0.82300
H1416       H  0.60211014  0.20679155  0.46762746     0.13500
C1417       C  0.62129386  0.13378937  0.47478260     0.02800
N1418       N  0.58917496  0.07403557  0.49897387    -0.80900
H1419       H  0.54840290  0.10279457  0.51459156     0.18300
C1420       C  0.63403761  0.12050048  0.51137571    -0.25700
C1421       C  0.65599296  0.10681794  0.50516994     0.36300
C1422       C  0.66563222  0.10450482  0.46086772    -0.19700
C1423       C  0.65291654  0.12102638  0.42494167    -0.25000
C1424       C  0.63106087  0.13499344  0.43149379     0.27700
H1425       H  0.62679228  0.12039741  0.54516423     0.13500
N1426       N  0.66826678  0.09439776  0.54417754    -0.82200
H1427       H  0.65981096  0.12421728  0.39123885     0.18300
N1428       N  0.61865303  0.14976967  0.39373381    -0.80800
H1429       H  0.66926856  0.11866118  0.56646965     0.33900
H1430       H  0.65937785  0.07176137  0.56047920     0.38400
H1431       H  0.62738790  0.17371055  0.37967345     0.33900
H1432       H  0.61788536  0.12712142  0.36930025     0.30600
H1433       H  0.57592286  0.05595652  0.50918372     0.33900
H1434       H  0.59402081  0.06415686  0.46670549     0.30600
H1435       H  0.55776827  0.24604890  0.51822329     0.38500
H1436       H  0.57444887  0.25410213  0.47351711     0.34000
C1437       C  0.32130314  0.07330235  0.44694087    -0.19800
C1438       C  0.32626083  0.11160444  0.42801614     0.36400
C1439       C  0.34583844  0.13168632  0.43955330    -0.25800
C1440       C  0.36095035  0.11510576  0.46988646     0.02900
C1441       C  0.35559341  0.07900734  0.49159893     0.27700
C1442       C  0.33589168  0.05881644  0.48057570    -0.24900
N1443       N  0.31185406  0.12973886  0.39543199    -0.82300
H1444       H  0.34963707  0.15987262  0.42330338     0.13500
C1445       C  0.38280756  0.13476551  0.47645665     0.02800
N1446       N  0.37009285  0.06291561  0.52533650    -0.80900
H1447       H  0.33206068  0.03207094  0.49936174     0.18300
C1448       C  0.38398305  0.17315873  0.49554602    -0.25700
C1449       C  0.40466877  0.19173058  0.50310457     0.36300
C1450       C  0.42458257  0.17153305  0.49076144    -0.19700
C1451       C  0.42306498  0.13410648  0.46917479    -0.25000
C1452       C  0.40249550  0.11567102  0.46221169     0.27700
H1453       H  0.36874046  0.18821092  0.50557904     0.13500
N1454       N  0.40546507  0.23036488  0.52438843    -0.82200
H1455       H  0.43800253  0.11796775  0.45943387     0.18300
N1456       N  0.40163501  0.07726408  0.44078298    -0.80800
H1457       H  0.38945413  0.24064343  0.53207899     0.33900
H1458       H  0.41214070  0.25029800  0.50070988     0.38400
H1459       H  0.40908386  0.07956509  0.40874078     0.33900
H1460       H  0.41105077  0.05731718  0.46007196     0.30600
H1461       H  0.37488891  0.03424212  0.51497774     0.33900
H1462       H  0.36106239  0.06027364  0.55562125     0.30600
H1463       H  0.30684273  0.15759096  0.40809623     0.38500
H1464       H  0.32089163  0.13446545  0.36550715     0.34000
loop_ 
_geom_bond_atom_site_label_1 
_geom_bond_atom_site_label_2 
_geom_bond_distance 
_geom_bond_site_symmetry_2 
_ccdc_geom_bond_type 
O1            C4   1.262       .  A
O1           Cd6   2.400       .  S
C2           O11   1.263       .  A
C2            O7   1.264       .  A
C2         C1381   1.470       .  S
O3            C9   1.265       .  A
O3           Cd6   2.461       .  S
C4           O12   1.268       .  A
C4         C1353   1.481       .  S
C5           O10   1.273       .  A
C5            O8   1.261       .  A
C5         C1409   1.494       .  S
Cd6          O13   2.488       .  S
Cd6          O12   2.509       .  S
Cd6          O11   2.429       .  S
Cd6           O7   2.443       .  S
Cd6          O10   2.540       .  S
Cd6           O8   2.418       .  S
C9           O13   1.265       .  A
C9         C1450   1.492       .  S
C14        C1241   1.581       .  S
C14        C1282   1.579       .  S
C14        C1297   1.570       .  S
C14        C1325   1.575       .  S
C15        C1185   1.571       .  S
C15        C1226   1.587       .  S
C15        C1338   1.569       .  S
C15        C1422   1.580       .  S
O16          C19   1.269       .  A
O16         Cd21   2.422       .  S
C17          O26   1.268       .  A
C17          O22   1.270       .  A
C17        C1101   1.478       .  S
O18          C24   1.273       .  A
O18         Cd21   2.498   1_455  S
C19          O27   1.265       .  A
C19        C1129   1.473       .  S
C20          O25   1.271       .  A
C20          O23   1.261       .  A
C20        C1310   1.472       .  S
Cd21         O28   2.362   1_655  S
Cd21         O27   2.444       .  S
Cd21         O26   2.404       .  S
Cd21         O22   2.458       .  S
Cd21         O25   2.492       .  S
Cd21         O23   2.375       .  S
C24          O28   1.263       .  A
C24        C1170   1.476       .  S
C29        C1017   1.566       .  S
C29        C1045   1.580       .  S
C29        C1086   1.570       .  S
C29        C1157   1.568       .  S
C30         C974   1.576       .  S
C30         C989   1.583       .  S
C30        C1073   1.578       .  S
C30        C1437   1.568       .  S
O31          C34   1.268       .  A
O31         Cd36   2.437       .  S
C32          O41   1.262       .  A
C32          O37   1.268       .  A
C32        C1394   1.481       .  S
O33          C39   1.270       .  A
O33         Cd36   2.518       .  S
C34          O42   1.270       .  A
C34         C877   1.479       .  S
C35          O40   1.265       .  A
C35          O38   1.273       .  A
C35         C933   1.483       .  S
Cd36         O43   2.409       .  S
Cd36         O42   2.467       .  S
Cd36         O41   2.424       .  S
Cd36         O37   2.464       .  S
Cd36         O40   2.410       .  S
Cd36         O38   2.501       .  S
C39          O43   1.261       .  A
C39         C905   1.480       .  S
C44         C793   1.577       .  S
C44         C821   1.564       .  S
C44         C849   1.584       .  S
C44        C1269   1.585       .  S
C45         C778   1.575       .  S
C45         C862   1.580       .  S
C45         C946   1.578       .  S
C45        C1213   1.590       .  S
O46          C49   1.263       .  A
O46         Cd51   2.436       .  S
C47          O56   1.261       .  A
C47          O52   1.262   1_455  A
C47        C1142   1.476       .  S
O48          C54   1.270       .  A
O48         Cd51   2.491       .  S
C49          O57   1.266   1_655  A
C49         C709   1.483       .  S
C50          O55   1.268       .  A
C50          O53   1.265       .  A
C50         C750   1.484       .  S
Cd51         O58   2.428       .  S
Cd51         O57   2.485   1_655  S
Cd51         O56   2.434   1_655  S
Cd51         O52   2.487       .  S
Cd51         O55   2.486   1_655  S
Cd51         O53   2.439   1_655  S
C54          O58   1.263       .  A
C54         C834   1.485       .  S
C59         C653   1.577       .  S
C59         C681   1.574       .  S
C59         C918   1.578       .  S
C59        C1002   1.583       .  S
C60         C638   1.584       .  S
C60         C694   1.583       .  S
C60         C737   1.574       .  S
C60        C1058   1.579       .  S
O61          C64   1.268       .  A
O61         Cd66   2.440   1_554  S
C62          O71   1.265       .  A
C62          O67   1.268       .  A
C62         C554   1.476       .  S
O63          C69   1.270       .  A
O63         Cd66   2.537       .  S
C64          O72   1.269       .  A
C64         C890   1.479       .  S
C65          O70   1.262       .  A
C65          O68   1.268       .  A
C65         C597   1.482       .  S
Cd66         O73   2.412       .  S
Cd66         O72   2.453   1_556  S
Cd66         O71   2.437       .  S
Cd66         O67   2.404       .  S
Cd66         O70   2.447       .  S
Cd66         O68   2.496       .  S
C69          O73   1.259       .  A
C69         C569   1.491       .  S
C74         C457   1.587       .  S
C74         C485   1.575       .  S
C74         C513   1.577       .  S
C74         C806   1.577       .  S
C75         C429   1.574       .  S
C75         C526   1.576       .  S
C75         C582   1.574       .  S
C75         C765   1.574       .  S
O76          C79   1.265       .  A
O76         Cd81   2.400       .  S
C77          O86   1.263       .  A
C77          O82   1.265   1_655  A
C77         C373   1.477       .  S
O78          C84   1.263       .  A
O78         Cd81   2.485   1_554  S
C79          O87   1.269   1_455  A
C79         C722   1.483       .  S
C80          O85   1.268       .  A
C80          O83   1.264       .  A
C80         C498   1.492       .  S
Cd81         O88   2.483   1_556  S
Cd81         O87   2.498   1_455  S
Cd81         O86   2.454   1_455  S
Cd81         O82   2.461       .  S
Cd81         O85   2.504   1_456  S
Cd81         O83   2.446   1_456  S
C84          O88   1.265       .  A
C84         C401   1.484       .  S
C89         C330   1.584       .  S
C89         C358   1.593       .  S
C89         C414   1.575       .  S
C89         C625   1.577       .  S
C90         C289   1.584       .  S
C90         C345   1.588       .  S
C90         C610   1.578       .  S
C90         C666   1.580       .  S
O91          C94   1.264       .  A
O91         Cd96   2.361       .  S
C92         O101   1.261       .  A
C92          O97   1.262       .  A
C92         C541   1.475       .  S
O93          C99   1.264       .  A
O93         Cd96   2.446   1_554  S
C94         O102   1.272       .  A
C94        C1366   1.477       .  S
C95         O100   1.265       .  A
C95          O98   1.267       .  A
C95         C274   1.489       .  S
Cd96        O103   2.472   1_556  S
Cd96        O102   2.502       .  S
Cd96        O101   2.447       .  S
Cd96         O97   2.440       .  S
Cd96        O100   2.466   1_556  S
Cd96         O98   2.472   1_556  S
C99         O103   1.264       .  A
C99         C233   1.475       .  S
C104        C177   1.566       .  S
C104        C218   1.578       .  S
C104        C470   1.589       .  S
C104       C1254   1.593       .  S
C105        C205   1.579       .  S
C105        C246   1.573       .  S
C105        C442   1.571       .  S
C105       C1198   1.571       .  S
O106        C109   1.268       .  A
O106       Cd111   2.456       .  S
C107        O116   1.266       .  A
C107        O112   1.268   1_556  A
C107        C386   1.477       .  S
O108        C114   1.271       .  A
O108       Cd111   2.536   1_456  S
C109        O117   1.269       .  A
C109       C1114   1.483       .  S
C110        O115   1.270   1_554  A
C110        O113   1.261       .  A
C110        C190   1.484       .  S
Cd111       O118   2.396   1_654  S
Cd111       O117   2.436       .  S
Cd111       O116   2.466   1_554  S
Cd111       O112   2.421       .  S
Cd111       O115   2.498   1_554  S
Cd111       O113   2.407       .  S
C114        O118   1.262       .  A
C114        C162   1.486       .  S
C119        C134   1.582       .  S
C119        C261   1.589       .  S
C119        C302   1.584       .  S
C119        C961   1.586       .  S
C120        C121   1.586       .  S
C120        C149   1.581       .  S
C120        C317   1.589       .  S
C120       C1030   1.572       .  S
C121        C122   1.428       .  A
C121        C126   1.424       .  A
C122        C123   1.412       .  A
C122        N127   1.433       .  S
C123        C124   1.402       .  A
C123        H128   1.084       .  S
C124        C129   1.496   1_556  S
C124        C125   1.404       .  A
C125        C126   1.406       .  A
C125        N130   1.439   1_556  S
C126        H131   1.075       .  S
N127        H147   1.045       .  S
N127        H148   1.046       .  S
C129        C132   1.397       .  A
C129        C136   1.404   1_554  A
N130        H145   1.046       .  S
N130        H146   1.045   1_554  S
C132        C133   1.406       .  A
C132        H137   1.084       .  S
C133        C134   1.435       .  A
C133        N138   1.430       .  S
C134        C135   1.423       .  A
C135        C136   1.409   1_554  A
C135        H139   1.084   1_554  S
C136        N140   1.432       .  S
N138        H141   1.046       .  S
N138        H142   1.046       .  S
N140        H143   1.045       .  S
N140        H144   1.046       .  S
C149        C150   1.435       .  A
C149        C154   1.422       .  A
C150        C151   1.400       .  A
C150        N155   1.431       .  S
C151        C152   1.394       .  A
C151        H156   1.085       .  S
C152        C157   1.486       .  S
C152        C153   1.405       .  A
C153        C154   1.409       .  A
C153        N158   1.437   1_556  S
C154        H159   1.084   1_556  S
N155        H175   1.045       .  S
N155        H176   1.046       .  S
C157        C160   1.406       .  A
C157        C164   1.409       .  A
N158        H173   1.046       .  S
N158        H174   1.045       .  S
C160        C161   1.414       .  A
C160        H165   1.084   1_556  S
C161        C162   1.415       .  A
C161        N166   1.437   1_556  S
C162        C163   1.405       .  A
C163        C164   1.399       .  A
C163        H167   1.084       .  S
C164        N168   1.439       .  S
N166        H169   1.046       .  S
N166        H170   1.045   1_554  S
N168        H171   1.045       .  S
N168        H172   1.046       .  S
C177        C178   1.425       .  A
C177        C182   1.422       .  A
C178        C179   1.402       .  A
C178        N183   1.433       .  S
C179        C180   1.399       .  A
C179        H184   1.084       .  S
C180        C185   1.485       .  S
C180        C181   1.404       .  A
C181        C182   1.406       .  A
C181        N186   1.438   1_556  S
C182        H187   1.076       .  S
N183        H203   1.046       .  S
N183        H204   1.045       .  S
C185        C188   1.400   1_556  A
C185        C192   1.411       .  A
N186        H201   1.046       .  S
N186        H202   1.045   1_554  S
C188        C189   1.401       .  A
C188        H193   1.084       .  S
C189        C190   1.414       .  A
C189        N194   1.433       .  S
C190        C191   1.406   1_554  A
C191        C192   1.408       .  A
C191        H195   1.083       .  S
C192        N196   1.437       .  S
N194        H197   1.045       .  S
N194        H198   1.046       .  S
N196        H199   1.046       .  S
N196        H200   1.046       .  S
C205        C206   1.420       .  A
C205        C210   1.422       .  A
C206        C207   1.408       .  A
C206        N211   1.430       .  S
C207        C208   1.405       .  A
C207        H212   1.084       .  S
C208        C213   1.505       .  S
C208        C209   1.410       .  A
C209        C210   1.410       .  A
C209        N214   1.438       .  S
C210        H215   1.080       .  S
N211        H231   1.045       .  S
N211        H232   1.046       .  S
C213        C216   1.406   1_554  A
C213        C220   1.409       .  A
N214        H229   1.046       .  S
N214        H230   1.045       .  S
C216        C217   1.415       .  A
C216        H221   1.082       .  S
C217        C218   1.429       .  A
C217        N222   1.436       .  S
C218        C219   1.417   1_556  A
C219        C220   1.407       .  A
C219        H223   1.078       .  S
C220        N224   1.438       .  S
N222        H225   1.045       .  S
N222        H226   1.045       .  S
N224        H227   1.045       .  S
N224        H228   1.046       .  S
C233        C234   1.410       .  A
C233        C238   1.405       .  A
C234        C235   1.409       .  A
C234        N239   1.437       .  S
C235        C236   1.403       .  A
C235        H240   1.083       .  S
C236        C241   1.476       .  S
C236        C237   1.407       .  A
C237        C238   1.401       .  A
C237        N242   1.439       .  S
C238        H243   1.084       .  S
N239        H259   1.046       .  S
N239        H260   1.045       .  S
C241        C244   1.399       .  A
C241        C248   1.399       .  A
N242        H257   1.045   1_554  S
N242        H258   1.046       .  S
C244        C245   1.408       .  A
C244        H249   1.084       .  S
C245        C246   1.429       .  A
C245        N250   1.432       .  S
C246        C247   1.421       .  A
C247        C248   1.399       .  A
C247        H251   1.081       .  S
C248        N252   1.439       .  S
N250        H253   1.046       .  S
N250        H254   1.046   1_545  S
N252        H255   1.045       .  S
N252        H256   1.046       .  S
C261        C262   1.435       .  A
C261        C266   1.421       .  A
C262        C263   1.404       .  A
C262        N267   1.433       .  S
C263        C264   1.395       .  A
C263        H268   1.084       .  S
C264        C269   1.487       .  S
C264        C265   1.404       .  A
C265        C266   1.408       .  A
C265        N270   1.438       .  S
C266        H271   1.074       .  S
N267        H287   1.046       .  S
N267        H288   1.045       .  S
C269        C272   1.403       .  A
C269        C276   1.408       .  A
N270        H285   1.046       .  S
N270        H286   1.045   1_554  S
C272        C273   1.409       .  A
C272        H277   1.084       .  S
C273        C274   1.416       .  A
C273        N278   1.438       .  S
C274        C275   1.407       .  A
C275        C276   1.407       .  A
C275        H279   1.083   1_554  S
C276        N280   1.438   1_554  S
N278        H281   1.046       .  S
N278        H282   1.045       .  S
N280        H283   1.046       .  S
N280        H284   1.046       .  S
C289        C290   1.423       .  A
C289        C294   1.420       .  A
C290        C291   1.415       .  A
C290        N295   1.432       .  S
C291        C292   1.408   1_556  A
C291        H296   1.083   1_556  S
C292        C297   1.512       .  S
C292        C293   1.412       .  A
C293        C294   1.409   1_554  A
C293        N298   1.439       .  S
C294        H299   1.076       .  S
N295        H315   1.045       .  S
N295        H316   1.046       .  S
C297        C300   1.405       .  A
C297        C304   1.410       .  A
N298        H313   1.046       .  S
N298        H314   1.045   1_554  S
C300        C301   1.409       .  A
C300        H305   1.083       .  S
C301        C302   1.430   1_565  A
C301        N306   1.434       .  S
C302        C303   1.420       .  A
C303        C304   1.411   1_545  A
C303        H307   1.076       .  S
C304        N308   1.432   1_554  S
N306        H309   1.045       .  S
N306        H310   1.046       .  S
N308        H311   1.046       .  S
N308        H312   1.046       .  S
C317        C318   1.430       .  A
C317        C322   1.418       .  A
C318        C319   1.408       .  A
C318        N323   1.432       .  S
C319        C320   1.405   1_556  A
C319        H324   1.082       .  S
C320        C325   1.529       .  S
C320        C321   1.421       .  A
C321        C322   1.422   1_554  A
C321        N326   1.437       .  S
C322        H327   1.075   1_556  S
N323        H343   1.046       .  S
N323        H344   1.045       .  S
C325        C328   1.409       .  A
C325        C332   1.422       .  A
N326        H341   1.046       .  S
N326        H342   1.046       .  S
C328        C329   1.413       .  A
C328        H333   1.081       .  S
C329        C330   1.427       .  A
C329        N334   1.433       .  S
C330        C331   1.414       .  A
C331        C332   1.417       .  A
C331        H335   1.082       .  S
C332        N336   1.437   1_554  S
N334        H337   1.045       .  S
N334        H338   1.046       .  S
N336        H339   1.045       .  S
N336        H340   1.046       .  S
C345        C346   1.426   1_556  A
C345        C350   1.417       .  A
C346        C347   1.420       .  A
C346        N351   1.432       .  S
C347        C348   1.409       .  A
C347        H352   1.083       .  S
C348        C353   1.523       .  S
C348        C349   1.417   1_554  A
C349        C350   1.412       .  A
C349        N354   1.439       .  S
C350        H355   1.077       .  S
N351        H371   1.045       .  S
N351        H372   1.046       .  S
C353        C356   1.401       .  A
C353        C360   1.417       .  A
N354        H369   1.046       .  S
N354        H370   1.045       .  S
C356        C357   1.408       .  A
C356        H361   1.083       .  S
C357        C358   1.436       .  A
C357        N362   1.432       .  S
C358        C359   1.419       .  A
C359        C360   1.425       .  A
C359        H363   1.083       .  S
C360        N364   1.437       .  S
N362        H365   1.046       .  S
N362        H366   1.046   1_554  S
N364        H367   1.046       .  S
N364        H368   1.045       .  S
C373        C374   1.411       .  A
C373        C378   1.404       .  A
C374        C375   1.404       .  A
C374        N379   1.437   1_655  S
C375        C376   1.404       .  A
C375        H380   1.084   1_655  S
C376        C381   1.479       .  S
C376        C377   1.407       .  A
C377        C378   1.399       .  A
C377        N382   1.433       .  S
C378        H383   1.084       .  S
N379        H399   1.046       .  S
N379        H400   1.045       .  S
C381        C384   1.403       .  A
C381        C388   1.409       .  A
N382        H397   1.046       .  S
N382        H398   1.045       .  S
C384        C385   1.394       .  A
C384        H389   1.084       .  S
C385        C386   1.408       .  A
C385        N390   1.433   1_556  S
C386        C387   1.408       .  A
C387        C388   1.409       .  A
C387        H391   1.083       .  S
C388        N392   1.437       .  S
N390        H393   1.046       .  S
N390        H394   1.046       .  S
N392        H395   1.046       .  S
N392        H396   1.046       .  S
C401        C402   1.414       .  A
C401        C406   1.407       .  A
C402        C403   1.406       .  A
C402        N407   1.438   1_554  S
C403        C404   1.400       .  A
C403        H408   1.084       .  S
C404        C409   1.483       .  S
C404        C405   1.410       .  A
C405        C406   1.411       .  A
C405        N410   1.438       .  S
C406        H411   1.084       .  S
N407        H427   1.046       .  S
N407        H428   1.045       .  S
C409        C412   1.395       .  A
C409        C416   1.406       .  A
N410        H425   1.046       .  S
N410        H426   1.043       .  S
C412        C413   1.404       .  A
C412        H417   1.084       .  S
C413        C414   1.429       .  A
C413        N418   1.432       .  S
C414        C415   1.420       .  A
C415        C416   1.408       .  A
C415        H419   1.076       .  S
C416        N420   1.439       .  S
N418        H421   1.046       .  S
N418        H422   1.045       .  S
N420        H423   1.045       .  S
N420        H424   1.044       .  S
C429        C430   1.430       .  A
C429        C434   1.417       .  A
C430        C431   1.406   1_556  A
C430        N435   1.432   1_556  S
C431        C432   1.398       .  A
C431        H436   1.085       .  S
C432        C437   1.495       .  S
C432        C433   1.415   1_554  A
C433        C434   1.412       .  A
C433        N438   1.438       .  S
C434        H439   1.083       .  S
N435        H455   1.046       .  S
N435        H456   1.046   1_554  S
C437        C440   1.399       .  A
C437        C444   1.407       .  A
N438        H453   1.045       .  S
N438        H454   1.044       .  S
C440        C441   1.410       .  A
C440        H445   1.084       .  S
C441        C442   1.430   1_565  A
C441        N446   1.432   1_565  S
C442        C443   1.418       .  A
C443        C444   1.411   1_545  A
C443        H447   1.083       .  S
C444        N448   1.437   1_554  S
N446        H449   1.045   1_545  S
N446        H450   1.046       .  S
N448        H451   1.046   1_565  S
N448        H452   1.045       .  S
C457        C458   1.434       .  A
C457        C462   1.422       .  A
C458        C459   1.406       .  A
C458        N463   1.430       .  S
C459        C460   1.400       .  A
C459        H464   1.085       .  S
C460        C465   1.508       .  S
C460        C461   1.409       .  A
C461        C462   1.416       .  A
C461        N466   1.431       .  S
C462        H467   1.083       .  S
N463        H483   1.045       .  S
N463        H484   1.046       .  S
C465        C468   1.400       .  A
C465        C472   1.417   1_554  A
N466        H481   1.046       .  S
N466        H482   1.046       .  S
C468        C469   1.405       .  A
C468        H473   1.085       .  S
C469        C470   1.435   1_554  A
C469        N474   1.433       .  S
C470        C471   1.418       .  A
C471        C472   1.413       .  A
C471        H475   1.083       .  S
C472        N476   1.431       .  S
N474        H477   1.046       .  S
N474        H478   1.046       .  S
N476        H479   1.041   1_556  S
N476        H480   1.046       .  S
C485        C486   1.428       .  A
C485        C490   1.422       .  A
C486        C487   1.406       .  A
C486        N491   1.433       .  S
C487        C488   1.397       .  A
C487        H492   1.084       .  S
C488        C493   1.483       .  S
C488        C489   1.403       .  A
C489        C490   1.407       .  A
C489        N494   1.439       .  S
C490        H495   1.077       .  S
N491        H511   1.046   1_554  S
N491        H512   1.045   1_554  S
C493        C496   1.402       .  A
C493        C500   1.408       .  A
N494        H509   1.046       .  S
N494        H510   1.045       .  S
C496        C497   1.408       .  A
C496        H501   1.084       .  S
C497        C498   1.414       .  A
C497        N502   1.432       .  S
C498        C499   1.409       .  A
C499        C500   1.406       .  A
C499        H503   1.083       .  S
C500        N504   1.439       .  S
N502        H505   1.046       .  S
N502        H506   1.046       .  S
N504        H507   1.046       .  S
N504        H508   1.044       .  S
C513        C514   1.430       .  A
C513        C518   1.419       .  A
C514        C515   1.405       .  A
C514        N519   1.433       .  S
C515        C516   1.396       .  A
C515        H520   1.084       .  S
C516        C521   1.494       .  S
C516        C517   1.409       .  A
C517        C518   1.414       .  A
C517        N522   1.438   1_554  S
C518        H523   1.079       .  S
N519        H539   1.045       .  S
N519        H540   1.046       .  S
C521        C524   1.402   1_554  A
C521        C528   1.415       .  A
N522        H537   1.046       .  S
N522        H538   1.045       .  S
C524        C525   1.410       .  A
C524        H529   1.084       .  S
C525        C526   1.426       .  A
C525        N530   1.432       .  S
C526        C527   1.416   1_556  A
C527        C528   1.406       .  A
C527        H531   1.081       .  S
C528        N532   1.439       .  S
N530        H533   1.046       .  S
N530        H534   1.046       .  S
N532        H535   1.045       .  S
N532        H536   1.043       .  S
C541        C542   1.415       .  A
C541        C546   1.405       .  A
C542        C543   1.401       .  A
C542        N547   1.438       .  S
C543        C544   1.398   1_545  A
C543        H548   1.084   1_545  S
C544        C549   1.463       .  S
C544        C545   1.406       .  A
C545        C546   1.399   1_565  A
C545        N550   1.439       .  S
C546        H551   1.084       .  S
N547        H567   1.046       .  S
N547        H568   1.046       .  S
C549        C552   1.397       .  A
C549        C556   1.407       .  A
N550        H565   1.046       .  S
N550        H566   1.046       .  S
C552        C553   1.406       .  A
C552        H557   1.084       .  S
C553        C554   1.419       .  A
C553        N558   1.438       .  S
C554        C555   1.403       .  A
C555        C556   1.392       .  A
C555        H559   1.083       .  S
C556        N560   1.440       .  S
N558        H561   1.046       .  S
N558        H562   1.046       .  S
N560        H563   1.045   1_556  S
N560        H564   1.046       .  S
C569        C570   1.417       .  A
C569        C574   1.408       .  A
C570        C571   1.414       .  A
C570        N575   1.437       .  S
C571        C572   1.405       .  A
C571        H576   1.084       .  S
C572        C577   1.484       .  S
C572        C573   1.404       .  A
C573        C574   1.399       .  A
C573        N578   1.433   1_556  S
C574        H579   1.084   1_556  S
N575        H595   1.045       .  S
N575        H596   1.046       .  S
C577        C580   1.396       .  A
C577        C584   1.402       .  A
N578        H593   1.046       .  S
N578        H594   1.045       .  S
C580        C581   1.405       .  A
C580        H585   1.084       .  S
C581        C582   1.428       .  A
C581        N586   1.430       .  S
C582        C583   1.420       .  A
C583        C584   1.403       .  A
C583        H587   1.079       .  S
C584        N588   1.432       .  S
N586        H589   1.046       .  S
N586        H590   1.046       .  S
N588        H591   1.045       .  S
N588        H592   1.046       .  S
C597        C598   1.412       .  A
C597        C602   1.403       .  A
C598        C599   1.407       .  A
C598        N603   1.437   1_556  S
C599        C600   1.406       .  A
C599        H604   1.083       .  S
C600        C605   1.500       .  S
C600        C601   1.417       .  A
C601        C602   1.409       .  A
C601        N606   1.438       .  S
C602        H607   1.084       .  S
N603        H623   1.044       .  S
N603        H624   1.047       .  S
C605        C608   1.400       .  A
C605        C612   1.412       .  A
N606        H621   1.046       .  S
N606        H622   1.046       .  S
C608        C609   1.402       .  A
C608        H613   1.083       .  S
C609        C610   1.430       .  A
C609        N614   1.434       .  S
C610        C611   1.418       .  A
C611        C612   1.411       .  A
C611        H615   1.077       .  S
C612        N616   1.438       .  S
N614        H617   1.046       .  S
N614        H618   1.046       .  S
N616        H619   1.046       .  S
N616        H620   1.045       .  S
C625        C626   1.431       .  A
C625        C630   1.419       .  A
C626        C627   1.404       .  A
C626        N631   1.433       .  S
C627        C628   1.396       .  A
C627        H632   1.084       .  S
C628        C633   1.494       .  S
C628        C629   1.408       .  A
C629        C630   1.415       .  A
C629        N634   1.438       .  S
C630        H635   1.077       .  S
N631        H651   1.046       .  S
N631        H652   1.045       .  S
C633        C636   1.402       .  A
C633        C640   1.407       .  A
N634        H649   1.045       .  S
N634        H650   1.046       .  S
C636        C637   1.410       .  A
C636        H641   1.084       .  S
C637        C638   1.435       .  A
C637        N642   1.433       .  S
C638        C639   1.423       .  A
C639        C640   1.397       .  A
C639        H643   1.078       .  S
C640        N644   1.434       .  S
N642        H645   1.044       .  S
N642        H646   1.042       .  S
N644        H647   1.046       .  S
N644        H648   1.043       .  S
C653        C654   1.434       .  A
C653        C658   1.420       .  A
C654        C655   1.409       .  A
C654        N659   1.431       .  S
C655        C656   1.400       .  A
C655        H660   1.084       .  S
C656        C661   1.499       .  S
C656        C657   1.406       .  A
C657        C658   1.406       .  A
C657        N662   1.432       .  S
C658        H663   1.083       .  S
N659        H679   1.046       .  S
N659        H680   1.045       .  S
C661        C664   1.399       .  A
C661        C668   1.408       .  A
N662        H677   1.046       .  S
N662        H678   1.046       .  S
C664        C665   1.403       .  A
C664        H669   1.084       .  S
C665        C666   1.430       .  A
C665        N670   1.433       .  S
C666        C667   1.421       .  A
C667        C668   1.412       .  A
C667        H671   1.077       .  S
C668        N672   1.432       .  S
N670        H673   1.046       .  S
N670        H674   1.046       .  S
N672        H675   1.045       .  S
N672        H676   1.046       .  S
C681        C682   1.424       .  A
C681        C686   1.420       .  A
C682        C683   1.411       .  A
C682        N687   1.432       .  S
C683        C684   1.402       .  A
C683        H688   1.084       .  S
C684        C689   1.494       .  S
C684        C685   1.406       .  A
C685        C686   1.408       .  A
C685        N690   1.439       .  S
C686        H691   1.078       .  S
N687        H707   1.045       .  S
N687        H708   1.045       .  S
C689        C692   1.395       .  A
C689        C696   1.406       .  A
N690        H705   1.045       .  S
N690        H706   1.046       .  S
C692        C693   1.407       .  A
C692        H697   1.084       .  S
C693        C694   1.436       .  A
C693        N698   1.431       .  S
C694        C695   1.421       .  A
C695        C696   1.412       .  A
C695        H699   1.083       .  S
C696        N700   1.438       .  S
N698        H701   1.046       .  S
N698        H702   1.046       .  S
N700        H703   1.044       .  S
N700        H704   1.047       .  S
C709        C710   1.414   1_655  A
C709        C714   1.404       .  A
C710        C711   1.409       .  A
C710        N715   1.437       .  S
C711        C712   1.405   1_455  A
C711        H716   1.084       .  S
C712        C717   1.483   1_655  S
C712        C713   1.408       .  A
C713        C714   1.398       .  A
C713        N718   1.433       .  S
C714        H719   1.084       .  S
N715        H735   1.046       .  S
N715        H736   1.045       .  S
C717        C720   1.405   1_455  A
C717        C724   1.409       .  A
N718        H733   1.045       .  S
N718        H734   1.046       .  S
C720        C721   1.411       .  A
C720        H725   1.084       .  S
C721        C722   1.415   1_655  A
C721        N726   1.437       .  S
C722        C723   1.403       .  A
C723        C724   1.395       .  A
C723        H727   1.084       .  S
C724        N728   1.434       .  S
N726        H729   1.046       .  S
N726        H730   1.046       .  S
N728        H731   1.045       .  S
N728        H732   1.046       .  S
C737        C738   1.429       .  A
C737        C742   1.421       .  A
C738        C739   1.405       .  A
C738        N743   1.432       .  S
C739        C740   1.399       .  A
C739        H744   1.084       .  S
C740        C745   1.483       .  S
C740        C741   1.403       .  A
C741        C742   1.404       .  A
C741        N746   1.438       .  S
C742        H747   1.082       .  S
N743        H763   1.046       .  S
N743        H764   1.045       .  S
C745        C748   1.401       .  A
C745        C752   1.409       .  A
N746        H761   1.045       .  S
N746        H762   1.046       .  S
C748        C749   1.406       .  A
C748        H753   1.084       .  S
C749        C750   1.414       .  A
C749        N754   1.437       .  S
C750        C751   1.406       .  A
C751        C752   1.407       .  A
C751        H755   1.083       .  S
C752        N756   1.438       .  S
N754        H757   1.046       .  S
N754        H758   1.046       .  S
N756        H759   1.046       .  S
N756        H760   1.046       .  S
C765        C766   1.433       .  A
C765        C770   1.421       .  A
C766        C767   1.409       .  A
C766        N771   1.431       .  S
C767        C768   1.397       .  A
C767        H772   1.084       .  S
C768        C773   1.489       .  S
C768        C769   1.403       .  A
C769        C770   1.405       .  A
C769        N774   1.438       .  S
C770        H775   1.083       .  S
N771        H791   1.046       .  S
N771        H792   1.046       .  S
C773        C776   1.401       .  A
C773        C780   1.409       .  A
N774        H789   1.046       .  S
N774        H790   1.045       .  S
C776        C777   1.412       .  A
C776        H781   1.084       .  S
C777        C778   1.428       .  A
C777        N782   1.433       .  S
C778        C779   1.419       .  A
C779        C780   1.397       .  A
C779        H783   1.077       .  S
C780        N784   1.434       .  S
N782        H785   1.046       .  S
N782        H786   1.045       .  S
N784        H787   1.044       .  S
N784        H788   1.046       .  S
C793        C794   1.426       .  A
C793        C798   1.420       .  A
C794        C795   1.405       .  A
C794        N799   1.430       .  S
C795        C796   1.399       .  A
C795        H800   1.084       .  S
C796        C801   1.492       .  S
C796        C797   1.413       .  A
C797        C798   1.407       .  A
C797        N802   1.439       .  S
C798        H803   1.079       .  S
N799        H819   1.046       .  S
N799        H820   1.046       .  S
C801        C804   1.400       .  A
C801        C808   1.405       .  A
N802        H817   1.046       .  S
N802        H818   1.043       .  S
C804        C805   1.408       .  A
C804        H809   1.084       .  S
C805        C806   1.426       .  A
C805        N810   1.432       .  S
C806        C807   1.419       .  A
C807        C808   1.409       .  A
C807        H811   1.079       .  S
C808        N812   1.437       .  S
N810        H813   1.045       .  S
N810        H814   1.046       .  S
N812        H815   1.046       .  S
N812        H816   1.045       .  S
C821        C822   1.425       .  A
C821        C826   1.418       .  A
C822        C823   1.402       .  A
C822        N827   1.433       .  S
C823        C824   1.399       .  A
C823        H828   1.084       .  S
C824        C829   1.479       .  S
C824        C825   1.411       .  A
C825        C826   1.400       .  A
C825        N830   1.439       .  S
C826        H831   1.078       .  S
N827        H847   1.045       .  S
N827        H848   1.046       .  S
C829        C832   1.399       .  A
C829        C836   1.409       .  A
N830        H845   1.045       .  S
N830        H846   1.043       .  S
C832        C833   1.405       .  A
C832        H837   1.084       .  S
C833        C834   1.417       .  A
C833        N838   1.438       .  S
C834        C835   1.405       .  A
C835        C836   1.406       .  A
C835        H839   1.083       .  S
C836        N840   1.438       .  S
N838        H841   1.046       .  S
N838        H842   1.045       .  S
N840        H843   1.046       .  S
N840        H844   1.044       .  S
C849        C850   1.441       .  A
C849        C854   1.417       .  A
C850        C851   1.405       .  A
C850        N855   1.433       .  S
C851        C852   1.393       .  A
C851        H856   1.084       .  S
C852        C857   1.495       .  S
C852        C853   1.407       .  A
C853        C854   1.411       .  A
C853        N858   1.432       .  S
C854        H859   1.084       .  S
N855        H875   1.046       .  S
N855        H876   1.046       .  S
C857        C860   1.403       .  A
C857        C864   1.401       .  A
N858        H873   1.045       .  S
N858        H874   1.046       .  S
C860        C861   1.412       .  A
C860        H865   1.084       .  S
C861        C862   1.427       .  A
C861        N866   1.429       .  S
C862        C863   1.424       .  A
C863        C864   1.404       .  A
C863        H867   1.083       .  S
C864        N868   1.432       .  S
N866        H869   1.045       .  S
N866        H870   1.046       .  S
N868        H871   1.046       .  S
N868        H872   1.045       .  S
C877        C878   1.414       .  A
C877        C882   1.405       .  A
C878        C879   1.407       .  A
C878        N883   1.438       .  S
C879        C880   1.401       .  A
C879        H884   1.084       .  S
C880        C885   1.476       .  S
C880        C881   1.407       .  A
C881        C882   1.404       .  A
C881        N886   1.439       .  S
C882        H887   1.084       .  S
N883        H903   1.046       .  S
N883        H904   1.046       .  S
C885        C888   1.400       .  A
C885        C892   1.408       .  A
N886        H901   1.046       .  S
N886        H902   1.044       .  S
C888        C889   1.407       .  A
C888        H893   1.084       .  S
C889        C890   1.414       .  A
C889        N894   1.437       .  S
C890        C891   1.404       .  A
C891        C892   1.403       .  A
C891        H895   1.084       .  S
C892        N896   1.439       .  S
N894        H897   1.046       .  S
N894        H898   1.044       .  S
N896        H899   1.045       .  S
N896        H900   1.045       .  S
C905        C906   1.411       .  A
C905        C910   1.407       .  A
C906        C907   1.401       .  A
C906        N911   1.433       .  S
C907        C908   1.399       .  A
C907        H912   1.084       .  S
C908        C913   1.480       .  S
C908        C909   1.408       .  A
C909        C910   1.409       .  A
C909        N914   1.432       .  S
C910        H915   1.084       .  S
N911        H931   1.045       .  S
N911        H932   1.046       .  S
C913        C916   1.395       .  A
C913        C920   1.401       .  A
N914        H929   1.046       .  S
N914        H930   1.046       .  S
C916        C917   1.407       .  A
C916        H921   1.084       .  S
C917        C918   1.431       .  A
C917        N922   1.431       .  S
C918        C919   1.418       .  A
C919        C920   1.401       .  A
C919        H923   1.079       .  S
C920        N924   1.433       .  S
N922        H925   1.045       .  S
N922        H926   1.046       .  S
N924        H927   1.046       .  S
N924        H928   1.045       .  S
C933        C934   1.415       .  A
C933        C938   1.406       .  A
C934        C935   1.403       .  A
C934        N939   1.438       .  S
C935        C936   1.399       .  A
C935        H940   1.084       .  S
C936        C941   1.481       .  S
C936        C937   1.409       .  A
C937        C938   1.410       .  A
C937        N942   1.437       .  S
C938        H943   1.083       .  S
N939        H959   1.046       .  S
N939        H960   1.046       .  S
C941        C944   1.397       .  A
C941        C948   1.401       .  A
N942        H957   1.046       .  S
N942        H958   1.045       .  S
C944        C945   1.405       .  A
C944        H949   1.084       .  S
C945        C946   1.427       .  A
C945        N950   1.432       .  S
C946        C947   1.423       .  A
C947        C948   1.405       .  A
C947        H951   1.077       .  S
C948        N952   1.438       .  S
N950        H953   1.045       .  S
N950        H954   1.046       .  S
N952        H955   1.045       .  S
N952        H956   1.046       .  S
C961        C962   1.440       .  A
C961        C966   1.418       .  A
C962        C963   1.412       .  A
C962        N967   1.435       .  S
C963        C964   1.406       .  A
C963        H968   1.082       .  S
C964        C969   1.513       .  S
C964        C965   1.412       .  A
C965        C966   1.401       .  A
C965        N970   1.441       .  S
C966        H971   1.069       .  S
N967        H987   1.044       .  S
N967        H988   1.041   1_545  S
C969        C972   1.401       .  A
C969        C976   1.413       .  A
N970        H985   1.044       .  S
N970        H986   1.047       .  S
C972        C973   1.401       .  A
C972        H977   1.084       .  S
C973        C974   1.433       .  A
C973        N978   1.434       .  S
C974        C975   1.416       .  A
C975        C976   1.415       .  A
C975        H979   1.083       .  S
C976        N980   1.431       .  S
N978        H981   1.046       .  S
N978        H982   1.045       .  S
N980        H983   1.045       .  S
N980        H984   1.046       .  S
C989        C990   1.426   1_545  A
C989        C994   1.421   1_545  A
C990        C991   1.411       .  A
C990        N995   1.428       .  S
C991        C992   1.403       .  A
C991        H996   1.083       .  S
C992        C997   1.510       .  S
C992        C993   1.409       .  A
C993        C994   1.412       .  A
C993        N998   1.432       .  S
C994        H999   1.081   1_565  S
N995       H1015   1.046       .  S
N995       H1016   1.046       .  S
C997       C1000   1.405       .  A
C997       C1004   1.410       .  A
N998       H1013   1.045       .  S
N998       H1014   1.046       .  S
C1000      C1001   1.413       .  A
C1000      H1005   1.083       .  S
C1001      C1002   1.429       .  A
C1001      N1006   1.431       .  S
C1002      C1003   1.419       .  A
C1003      C1004   1.410       .  A
C1003      H1007   1.083       .  S
C1004      N1008   1.432       .  S
N1006      H1009   1.046       .  S
N1006      H1010   1.046       .  S
N1008      H1011   1.045       .  S
N1008      H1012   1.046       .  S
C1017      C1018   1.427       .  A
C1017      C1022   1.417       .  A
C1018      C1019   1.412       .  A
C1018      N1023   1.431       .  S
C1019      C1020   1.401       .  A
C1019      H1024   1.084       .  S
C1020      C1025   1.488       .  S
C1020      C1021   1.406       .  A
C1021      C1022   1.403       .  A
C1021      N1026   1.438       .  S
C1022      H1027   1.081       .  S
N1023      H1043   1.046       .  S
N1023      H1044   1.046       .  S
C1025      C1028   1.398       .  A
C1025      C1032   1.403       .  A
N1026      H1041   1.046       .  S
N1026      H1042   1.045       .  S
C1028      C1029   1.408       .  A
C1028      H1033   1.084       .  S
C1029      C1030   1.429       .  A
C1029      N1034   1.430       .  S
C1030      C1031   1.422       .  A
C1031      C1032   1.406       .  A
C1031      H1035   1.083       .  S
C1032      N1036   1.432       .  S
N1034      H1037   1.046       .  S
N1034      H1038   1.046       .  S
N1036      H1039   1.046       .  S
N1036      H1040   1.045       .  S
C1045      C1046   1.422       .  A
C1045      C1050   1.420       .  A
C1046      C1047   1.415       .  A
C1046      N1051   1.432       .  S
C1047      C1048   1.409       .  A
C1047      H1052   1.082       .  S
C1048      C1053   1.513       .  S
C1048      C1049   1.412       .  A
C1049      C1050   1.409       .  A
C1049      N1054   1.439       .  S
C1050      H1055   1.080       .  S
N1051      H1071   1.045       .  S
N1051      H1072   1.045       .  S
C1053      C1056   1.404       .  A
C1053      C1060   1.411       .  A
N1054      H1069   1.046       .  S
N1054      H1070   1.046       .  S
C1056      C1057   1.408       .  A
C1056      H1061   1.083       .  S
C1057      C1058   1.428       .  A
C1057      N1062   1.432       .  S
C1058      C1059   1.420       .  A
C1059      C1060   1.415       .  A
C1059      H1063   1.077       .  S
C1060      N1064   1.432       .  S
N1062      H1065   1.045       .  S
N1062      H1066   1.046       .  S
N1064      H1067   1.045       .  S
N1064      H1068   1.046       .  S
C1073      C1074   1.426       .  A
C1073      C1078   1.420       .  A
C1074      C1075   1.399       .  A
C1074      N1079   1.433       .  S
C1075      C1076   1.400       .  A
C1075      H1080   1.083       .  S
C1076      C1081   1.503       .  S
C1076      C1077   1.413       .  A
C1077      C1078   1.414       .  A
C1077      N1082   1.438       .  S
C1078      H1083   1.076       .  S
N1079      H1099   1.046       .  S
N1079      H1100   1.046       .  S
C1081      C1084   1.405       .  A
C1081      C1088   1.410       .  A
N1082      H1097   1.045       .  S
N1082      H1098   1.046       .  S
C1084      C1085   1.411       .  A
C1084      H1089   1.082       .  S
C1085      C1086   1.427       .  A
C1085      N1090   1.431       .  S
C1086      C1087   1.417       .  A
C1087      C1088   1.403       .  A
C1087      H1091   1.078       .  S
C1088      N1092   1.439       .  S
N1090      H1093   1.045       .  S
N1090      H1094   1.046       .  S
N1092      H1095   1.046       .  S
N1092      H1096   1.046       .  S
C1101      C1102   1.413       .  A
C1101      C1106   1.405   1_655  A
C1102      C1103   1.399       .  A
C1102      N1107   1.439       .  S
C1103      C1104   1.401       .  A
C1103      H1108   1.084       .  S
C1104      C1109   1.483       .  S
C1104      C1105   1.411   1_655  A
C1105      C1106   1.407       .  A
C1105      N1110   1.438       .  S
C1106      H1111   1.084       .  S
N1107      H1127   1.045       .  S
N1107      H1128   1.046       .  S
C1109      C1112   1.402       .  A
C1109      C1116   1.410   1_655  A
N1110      H1125   1.046       .  S
N1110      H1126   1.045       .  S
C1112      C1113   1.407       .  A
C1112      H1117   1.084       .  S
C1113      C1114   1.416       .  A
C1113      N1118   1.438       .  S
C1114      C1115   1.404   1_655  A
C1115      C1116   1.401       .  A
C1115      H1119   1.083       .  S
C1116      N1120   1.438       .  S
N1118      H1121   1.046       .  S
N1118      H1122   1.046       .  S
N1120      H1123   1.046       .  S
N1120      H1124   1.045       .  S
C1129      C1130   1.416   1_655  A
C1129      C1134   1.399       .  A
C1130      C1131   1.408       .  A
C1130      N1135   1.437       .  S
C1131      C1132   1.400   1_455  A
C1131      H1136   1.084       .  S
C1132      C1137   1.472   1_655  S
C1132      C1133   1.410       .  A
C1133      C1134   1.393       .  A
C1133      N1138   1.434       .  S
C1134      H1139   1.084       .  S
N1135      H1155   1.045       .  S
N1135      H1156   1.046       .  S
C1137      C1140   1.401       .  A
C1137      C1144   1.404   1_455  A
N1138      H1153   1.046       .  S
N1138      H1154   1.045       .  S
C1140      C1141   1.401       .  A
C1140      H1145   1.084       .  S
C1141      C1142   1.413       .  A
C1141      N1146   1.438       .  S
C1142      C1143   1.406   1_455  A
C1143      C1144   1.402       .  A
C1143      H1147   1.083       .  S
C1144      N1148   1.432       .  S
N1146      H1149   1.046       .  S
N1146      H1150   1.045       .  S
N1148      H1151   1.046       .  S
N1148      H1152   1.046       .  S
C1157      C1158   1.431       .  A
C1157      C1162   1.415       .  A
C1158      C1159   1.401       .  A
C1158      N1163   1.433       .  S
C1159      C1160   1.395       .  A
C1159      H1164   1.084       .  S
C1160      C1165   1.471       .  S
C1160      C1161   1.410       .  A
C1161      C1162   1.398       .  A
C1161      N1166   1.438       .  S
C1162      H1167   1.083       .  S
N1163      H1183   1.046       .  S
N1163      H1184   1.046       .  S
C1165      C1168   1.396       .  A
C1165      C1172   1.408       .  A
N1166      H1181   1.045       .  S
N1166      H1182   1.044       .  S
C1168      C1169   1.395       .  A
C1168      H1173   1.085       .  S
C1169      C1170   1.415       .  A
C1169      N1174   1.439       .  S
C1170      C1171   1.406       .  A
C1171      C1172   1.410       .  A
C1171      H1175   1.083       .  S
C1172      N1176   1.437       .  S
N1174      H1177   1.046       .  S
N1174      H1178   1.045       .  S
N1176      H1179   1.045       .  S
N1176      H1180   1.046       .  S
C1185      C1186   1.431       .  A
C1185      C1190   1.414       .  A
C1186      C1187   1.409       .  A
C1186      N1191   1.433       .  S
C1187      C1188   1.403       .  A
C1187      H1192   1.083       .  S
C1188      C1193   1.505       .  S
C1188      C1189   1.414       .  A
C1189      C1190   1.405       .  A
C1189      N1194   1.439       .  S
C1190      H1195   1.083       .  S
N1191      H1211   1.046       .  S
N1191      H1212   1.045       .  S
C1193      C1196   1.401       .  A
C1193      C1200   1.413       .  A
N1194      H1209   1.045       .  S
N1194      H1210   1.047       .  S
C1196      C1197   1.403       .  A
C1196      H1201   1.083       .  S
C1197      C1198   1.425       .  A
C1197      N1202   1.432       .  S
C1198      C1199   1.419       .  A
C1199      C1200   1.411       .  A
C1199      H1203   1.079       .  S
C1200      N1204   1.439       .  S
N1202      H1205   1.045   1_545  S
N1202      H1206   1.046   1_545  S
N1204      H1207   1.046       .  S
N1204      H1208   1.046       .  S
C1213      C1214   1.436       .  A
C1213      C1218   1.422       .  A
C1214      C1215   1.412       .  A
C1214      N1219   1.430       .  S
C1215      C1216   1.397       .  A
C1215      H1220   1.084       .  S
C1216      C1221   1.505       .  S
C1216      C1217   1.416       .  A
C1217      C1218   1.413       .  A
C1217      N1222   1.438       .  S
C1218      H1223   1.084       .  S
N1219      H1239   1.046       .  S
N1219      H1240   1.045       .  S
C1221      C1224   1.400       .  A
C1221      C1228   1.408       .  A
N1222      H1237   1.045       .  S
N1222      H1238   1.044       .  S
C1224      C1225   1.414   1_565  A
C1224      H1229   1.084       .  S
C1225      C1226   1.428       .  A
C1225      N1230   1.429       .  S
C1226      C1227   1.422       .  A
C1227      C1228   1.415   1_545  A
C1227      H1231   1.079       .  S
C1228      N1232   1.438       .  S
N1230      H1233   1.045       .  S
N1230      H1234   1.046       .  S
N1232      H1235   1.046       .  S
N1232      H1236   1.045       .  S
C1241      C1242   1.431       .  A
C1241      C1246   1.423       .  A
C1242      C1243   1.410       .  A
C1242      N1247   1.430       .  S
C1243      C1244   1.401       .  A
C1243      H1248   1.084       .  S
C1244      C1249   1.501       .  S
C1244      C1245   1.411       .  A
C1245      C1246   1.403       .  A
C1245      N1250   1.433       .  S
C1246      H1251   1.083       .  S
N1247      H1267   1.045       .  S
N1247      H1268   1.046       .  S
C1249      C1252   1.397       .  A
C1249      C1256   1.414       .  A
N1250      H1265   1.041       .  S
N1250      H1266   1.046       .  S
C1252      C1253   1.402       .  A
C1252      H1257   1.085       .  S
C1253      C1254   1.443       .  A
C1253      N1258   1.433       .  S
C1254      C1255   1.423       .  A
C1255      C1256   1.410       .  A
C1255      H1259   1.074       .  S
C1256      N1260   1.439       .  S
N1258      H1261   1.042       .  S
N1258      H1262   1.041       .  S
N1260      H1263   1.046       .  S
N1260      H1264   1.043       .  S
C1269      C1270   1.429       .  A
C1269      C1274   1.417       .  A
C1270      C1271   1.406       .  A
C1270      N1275   1.433       .  S
C1271      C1272   1.404       .  A
C1271      H1276   1.082       .  S
C1272      C1277   1.514       .  S
C1272      C1273   1.416       .  A
C1273      C1274   1.413       .  A
C1273      N1278   1.438       .  S
C1274      H1279   1.074       .  S
N1275      H1295   1.045       .  S
N1275      H1296   1.046       .  S
C1277      C1280   1.406       .  A
C1277      C1284   1.416       .  A
N1278      H1293   1.045       .  S
N1278      H1294   1.046       .  S
C1280      C1281   1.408       .  A
C1280      H1285   1.081       .  S
C1281      C1282   1.425       .  A
C1281      N1286   1.431       .  S
C1282      C1283   1.419       .  A
C1283      C1284   1.412       .  A
C1283      H1287   1.083       .  S
C1284      N1288   1.438       .  S
N1286      H1289   1.046       .  S
N1286      H1290   1.045       .  S
N1288      H1291   1.046       .  S
N1288      H1292   1.046       .  S
C1297      C1298   1.428       .  A
C1297      C1302   1.417       .  A
C1298      C1299   1.400       .  A
C1298      N1303   1.432       .  S
C1299      C1300   1.393       .  A
C1299      H1304   1.084       .  S
C1300      C1305   1.477       .  S
C1300      C1301   1.406       .  A
C1301      C1302   1.403       .  A
C1301      N1306   1.439       .  S
C1302      H1307   1.078       .  S
N1303      H1323   1.045       .  S
N1303      H1324   1.046       .  S
C1305      C1308   1.400       .  A
C1305      C1312   1.410       .  A
N1306      H1321   1.045       .  S
N1306      H1322   1.046       .  S
C1308      C1309   1.400       .  A
C1308      H1313   1.084       .  S
C1309      C1310   1.412       .  A
C1309      N1314   1.438       .  S
C1310      C1311   1.403       .  A
C1311      C1312   1.406       .  A
C1311      H1315   1.084       .  S
C1312      N1316   1.438       .  S
N1314      H1317   1.045       .  S
N1314      H1318   1.046       .  S
N1316      H1319   1.046       .  S
N1316      H1320   1.045       .  S
C1325      C1326   1.423       .  A
C1325      C1330   1.422       .  A
C1326      C1327   1.414       .  A
C1326      N1331   1.433       .  S
C1327      C1328   1.404       .  A
C1327      H1332   1.083       .  S
C1328      C1333   1.491       .  S
C1328      C1329   1.406       .  A
C1329      C1330   1.398       .  A
C1329      N1334   1.434       .  S
C1330      H1335   1.079       .  S
N1331      H1351   1.045       .  S
N1331      H1352   1.045       .  S
C1333      C1336   1.395       .  A
C1333      C1340   1.412       .  A
N1334      H1349   1.043       .  S
N1334      H1350   1.046       .  S
C1336      C1337   1.406       .  A
C1336      H1341   1.084       .  S
C1337      C1338   1.431       .  A
C1337      N1342   1.432       .  S
C1338      C1339   1.416       .  A
C1339      C1340   1.406       .  A
C1339      H1343   1.080       .  S
C1340      N1344   1.433       .  S
N1342      H1345   1.046       .  S
N1342      H1346   1.045       .  S
N1344      H1347   1.044       .  S
N1344      H1348   1.046       .  S
C1353      C1354   1.414       .  A
C1353      C1358   1.404       .  A
C1354      C1355   1.410       .  A
C1354      N1359   1.437       .  S
C1355      C1356   1.405       .  A
C1355      H1360   1.084       .  S
C1356      C1361   1.483       .  S
C1356      C1357   1.408       .  A
C1357      C1358   1.396       .  A
C1357      N1362   1.433       .  S
C1358      H1363   1.084       .  S
N1359      H1379   1.045       .  S
N1359      H1380   1.046       .  S
C1361      C1364   1.407       .  A
C1361      C1368   1.408       .  A
N1362      H1377   1.045       .  S
N1362      H1378   1.046       .  S
C1364      C1365   1.410       .  A
C1364      H1369   1.083       .  S
C1365      C1366   1.411       .  A
C1365      N1370   1.436       .  S
C1366      C1367   1.403       .  A
C1367      C1368   1.394       .  A
C1367      H1371   1.084       .  S
C1368      N1372   1.433       .  S
N1370      H1373   1.045       .  S
N1370      H1374   1.046       .  S
N1372      H1375   1.045       .  S
N1372      H1376   1.046       .  S
C1381      C1382   1.411       .  A
C1381      C1386   1.405       .  A
C1382      C1383   1.398       .  A
C1382      N1387   1.433       .  S
C1383      C1384   1.398   1_545  A
C1383      H1388   1.084   1_545  S
C1384      C1389   1.468       .  S
C1384      C1385   1.407   1_565  A
C1385      C1386   1.402       .  A
C1385      N1390   1.438   1_545  S
C1386      H1391   1.084       .  S
N1387      H1407   1.046       .  S
N1387      H1408   1.045       .  S
C1389      C1392   1.395       .  A
C1389      C1396   1.405       .  A
N1390      H1405   1.045   1_565  S
N1390      H1406   1.045       .  S
C1392      C1393   1.405       .  A
C1392      H1397   1.084       .  S
C1393      C1394   1.421       .  A
C1393      N1398   1.438       .  S
C1394      C1395   1.404       .  A
C1395      C1396   1.397       .  A
C1395      H1399   1.084       .  S
C1396      N1400   1.433       .  S
N1398      H1401   1.046       .  S
N1398      H1402   1.046       .  S
N1400      H1403   1.046       .  S
N1400      H1404   1.046       .  S
C1409      C1410   1.415       .  A
C1409      C1414   1.409       .  A
C1410      C1411   1.414       .  A
C1410      N1415   1.437       .  S
C1411      C1412   1.405       .  A
C1411      H1416   1.083       .  S
C1412      C1417   1.490       .  S
C1412      C1413   1.407       .  A
C1413      C1414   1.405       .  A
C1413      N1418   1.438       .  S
C1414      H1419   1.083       .  S
N1415      H1435   1.046       .  S
N1415      H1436   1.045       .  S
C1417      C1420   1.400       .  A
C1417      C1424   1.401       .  A
N1418      H1433   1.046       .  S
N1418      H1434   1.045       .  S
C1420      C1421   1.407       .  A
C1420      H1425   1.084       .  S
C1421      C1422   1.426       .  A
C1421      N1426   1.432       .  S
C1422      C1423   1.422       .  A
C1423      C1424   1.406       .  A
C1423      H1427   1.079       .  S
C1424      N1428   1.432       .  S
N1426      H1429   1.046       .  S
N1426      H1430   1.046       .  S
N1428      H1431   1.046       .  S
N1428      H1432   1.046       .  S
C1437      C1438   1.432       .  A
C1437      C1442   1.414       .  A
C1438      C1439   1.403       .  A
C1438      N1443   1.432       .  S
C1439      C1440   1.394       .  A
C1439      H1444   1.084       .  S
C1440      C1445   1.487       .  S
C1440      C1441   1.407       .  A
C1441      C1442   1.407       .  A
C1441      N1446   1.432       .  S
C1442      H1447   1.079       .  S
N1443      H1463   1.046       .  S
N1443      H1464   1.045       .  S
C1445      C1448   1.404       .  A
C1445      C1452   1.405       .  A
N1446      H1461   1.046       .  S
N1446      H1462   1.046       .  S
C1448      C1449   1.413       .  A
C1448      H1453   1.084       .  S
C1449      C1450   1.418       .  A
C1449      N1454   1.437       .  S
C1450      C1451   1.407       .  A
C1451      C1452   1.402       .  A
C1451      H1455   1.083       .  S
C1452      N1456   1.432       .  S
N1454      H1457   1.045       .  S
N1454      H1458   1.046       .  S
N1456      H1459   1.045       .  S
N1456      H1460   1.046       .  S
