geometry optimzed in LAMMPS
_audit_creation_date              2020-11-30 
_audit_creation_method            'lammps2cif' 
_symmetry_space_group_name_H-M    'P1' 
_symmetry_Int_Tables_number       1 
_symmetry_cell_setting            triclinic 
loop_ 
_symmetry_equiv_pos_as_xyz 
  x,y,z 
_cell_length_a                    34.12791442 
_cell_length_b                    33.969367219774256 
_cell_length_c                    89.51035986011237 
_cell_angle_alpha                 89.84358004475024 
_cell_angle_beta                  90.11086108067121 
_cell_angle_gamma                 120.29026440910536 
loop_ 
_atom_site_label 
_atom_site_type_symbol 
_atom_site_fract_x 
_atom_site_fract_y 
_atom_site_fract_z 
_atom_site_charge 
C1          C  0.11461966  0.85253516  0.15321202     0.80500
N2          N  0.09598310  0.84757610  0.13944949    -0.77800
C3          C  0.08097619  0.87567524  0.13481498     0.82900
N4          N  0.08606608  0.91003315  0.14383583    -0.77800
C5          C  0.10527005  0.91611157  0.15757223     0.83000
N6          N  0.11971761  0.88720391  0.16212039    -0.79500
C7          C  0.27375129  0.30202104  0.20342734     0.80500
N8          N  0.24757962  0.25909482  0.19803060    -0.77800
C9          C  0.24376065  0.22282414  0.20570736     0.82900
N10         N  0.26697047  0.22977097  0.21864980    -0.77800
C11         C  0.29416554  0.27234576  0.22406701     0.83000
N12         N  0.29729188  0.30853885  0.21639000    -0.79500
C13         C  0.95595093  0.25252644  0.14742152     0.80500
N14         N  0.91531264  0.23533527  0.15441725    -0.77800
C15         C  0.87646960  0.20393259  0.14760386     0.82900
N16         N  0.87849089  0.19106772  0.13334729    -0.77800
C17         C  0.91891709  0.20891019  0.12603921     0.83000
N18         N  0.95748538  0.23939107  0.13324778    -0.79500
C19         C  0.51260922  0.97166593  0.20579636     0.80500
N20         N  0.54776918  0.00011671  0.19685386    -0.77800
C21         C  0.57679855  0.04403882  0.20092395     0.82900
N22         N  0.57013318  0.05923640  0.21415665    -0.77800
C23         C  0.53479009  0.03121216  0.22311992     0.83000
N24         N  0.50622768  0.98742898  0.21896376    -0.79500
C25         C  0.91951763  0.57792648  0.20988930     0.80500
N26         N  0.90219394  0.59765887  0.20089621    -0.77800
C27         C  0.86337358  0.59674811  0.20467878     0.82900
N28         N  0.84102702  0.57492382  0.21731726    -0.77800
C29         C  0.85716424  0.55386161  0.22621741     0.83000
N30         N  0.89668104  0.55561697  0.22248880    -0.79500
C31         C  0.60700142  0.69412357  0.14619714     0.80500
N32         N  0.63650557  0.68502921  0.15348863    -0.77800
C33         C  0.67148697  0.68593535  0.14592214     0.82900
N34         N  0.67571193  0.69441980  0.13100263    -0.77800
C35         C  0.64542028  0.70192976  0.12355006     0.83000
N36         N  0.61146806  0.70213113  0.13128736    -0.79500
C37         C  0.28135236  0.65445170  0.17187623     0.02500
C38         C  0.23484805  0.64059665  0.17194874     0.02500
C39         C  0.20197580  0.59363513  0.17186779     0.02500
C40         C  0.21539986  0.56079898  0.16999511     0.02500
C41         C  0.26195890  0.57462820  0.16964871     0.02500
C42         C  0.29492009  0.62163480  0.17005930     0.02500
O43         O  0.50515968  0.25868830  0.36936889    -0.78300
C44         C  0.63851758  0.27443866  0.36551247     0.82800
O45         O  0.58564095  0.40305291  0.34719405    -0.79400
O46         O  0.66405305  0.34042089  0.31974190    -0.80900
O47         O  0.51516057  0.20155392  0.32021811    -0.80700
O48         O  0.46387682  0.21308299  0.35089635    -0.79300
Zn49       Zn  0.56644876  0.30133119  0.36076731     1.66200
O50         O  0.58976279  0.22953896  0.31969817    -0.80700
Cd51       Cd  0.50654529  0.24670216  0.33304743     1.59700
Cd52       Cd  0.57684655  0.35665589  0.33048121     1.59600
O53         O  0.47378788  0.26979833  0.31936638    -0.80700
O54         O  0.56703051  0.29816454  0.33941115    -1.91200
Cd55       Cd  0.61707368  0.28693981  0.33314714     1.59900
O56         O  0.52182143  0.34444819  0.31714514    -0.80600
O57         O  0.64799995  0.27548137  0.35166529    -0.79300
C58         C  0.58939457  0.39994429  0.36126770     0.83300
C59         C  0.46869617  0.22468677  0.36459165     0.82900
O60         O  0.60851408  0.28347994  0.36990685    -0.78200
C61         C  0.54961108  0.20006145  0.31560410     0.83700
O62         O  0.58447885  0.36392407  0.36739063    -0.78300
C63         C  0.48458975  0.30853723  0.31381978     0.83800
C64         C  0.66458785  0.37501174  0.31386497     0.84200
O65         O  0.63425599  0.38527400  0.31690567    -0.80800
C66         C  0.56154491  0.85706799  0.53401165     0.80500
N67         N  0.54154833  0.87703156  0.52640785    -0.77800
C68         C  0.50039109  0.87014277  0.53060999     0.82900
N69         N  0.47901379  0.84322669  0.54255215    -0.77800
C70         C  0.49872270  0.82377070  0.55055434     0.83000
N71         N  0.54001972  0.83072978  0.54618453    -0.79500
C72         C  0.28259478  0.02919019  0.47770206     0.80500
N73         N  0.30534098  0.01004635  0.48388767    -0.77800
C74         C  0.34009915  0.01004192  0.47645366     0.82900
N75         N  0.35047305  0.02817051  0.46244147    -0.77800
C76         C  0.32694759  0.04635814  0.45597165     0.83000
N77         N  0.29358391  0.04721115  0.46382262    -0.79500
C78         C  0.19265618  0.30238988  0.53776167     0.80500
N79         N  0.18773954  0.31326746  0.55199402    -0.77800
C80         C  0.22061336  0.35225529  0.55844139     0.82900
N81         N  0.25823193  0.38057317  0.55044007    -0.77800
C82         C  0.26353673  0.37026209  0.53627426     0.83000
N83         N  0.23040951  0.33141168  0.52994776    -0.79500
C84         C  0.58421114  0.55930129  0.45259198     0.80500
N85         N  0.54604488  0.53669215  0.46101479    -0.77800
C86         C  0.54550160  0.54945996  0.47533980     0.82900
N87         N  0.58315687  0.58531299  0.48122755    -0.77800
C88         C  0.62142788  0.60781667  0.47293759     0.83000
N89         N  0.62196613  0.59430354  0.45875124    -0.79500
C90         C  0.99381513  0.66536161  0.53639771     0.80500
N91         N  0.01305730  0.66840106  0.54997400    -0.77800
C92         C  0.01458067  0.63221726  0.55580026     0.82900
N93         N  0.99705313  0.59293960  0.54784975    -0.77800
C94         C  0.97767168  0.58927924  0.53428095     0.83000
N95         N  0.97560612  0.62544991  0.52871704    -0.79500
C96         C  0.82669640  0.21867782  0.47328413     0.80500
N97         N  0.80282473  0.21671835  0.46079471    -0.77800
C98         C  0.79582844  0.25180433  0.45723893     0.82900
N99         N  0.81302814  0.28858584  0.46639156    -0.77800
C100        C  0.83765310  0.29145340  0.47866076     0.83000
N101        N  0.84433743  0.25639915  0.48205013    -0.79500
C102        C  0.93577775  0.91400911  0.50119601     0.02500
C103        C  0.88951593  0.90133224  0.50122904     0.02500
C104        C  0.87625053  0.93458410  0.50048010     0.02500
C105        C  0.90982309  0.98088907  0.49904083     0.02500
C106        C  0.95605654  0.99382395  0.49980498     0.02500
C107        C  0.96897120  0.96040951  0.49996268     0.02500
C108        C  0.49918011  0.57599096  0.81533888     0.80500
N109        N  0.51159150  0.61440923  0.82327875    -0.77800
C110        C  0.50740695  0.64884194  0.81729572     0.82900
N111        N  0.49066374  0.64459125  0.80321475    -0.77800
C112        C  0.47814082  0.60609520  0.79512242     0.83000
N113        N  0.48203867  0.57177096  0.80137853    -0.79500
C114        C  0.63590524  0.00888144  0.87742935     0.80500
N115        N  0.65988442  0.01765832  0.89032437    -0.77800
C116        C  0.66330427  0.98399969  0.89726269     0.82900
N117        N  0.64330021  0.94162798  0.89120436    -0.77800
C118        C  0.61900276  0.93257136  0.87839070     0.83000
N119        N  0.61530958  0.96625664  0.87157762    -0.79500
C120        C  0.29235028  0.94086283  0.80395150     0.80500
N121        N  0.30156468  0.92089110  0.79240305    -0.77800
C122        C  0.27039758  0.87834844  0.78769750     0.82900
N123        N  0.23005398  0.85535112  0.79505250    -0.77800
C124        C  0.22071320  0.87451286  0.80679872     0.83000
N125        N  0.25183144  0.91748342  0.81109083    -0.79500
C126        C  0.89119114  0.70401215  0.88928239     0.80500
N127        N  0.85706273  0.66360964  0.88421159    -0.77800
C128        C  0.85990607  0.64782377  0.87060707     0.82900
N129        N  0.89799248  0.67208167  0.86225172    -0.77800
C130        C  0.93280364  0.71241637  0.86728020     0.83000
N131        N  0.92889926  0.72823840  0.88078407    -0.79500
C132        C  0.22912029  0.23536203  0.88211908     0.80500
N133        N  0.21160178  0.20918027  0.89450715    -0.77800
C134        C  0.17053684  0.19914280  0.89990953     0.82900
N135        N  0.14610509  0.21447638  0.89243881    -0.77800
C136        C  0.16267209  0.23993614  0.87983347     0.83000
N137        N  0.20449130  0.25069662  0.87477531    -0.79500
C138        C  0.91978937  0.34186036  0.80996009     0.80500
N139        N  0.93350488  0.35282270  0.79553651    -0.77800
C140        C  0.97212921  0.35459755  0.79072160     0.82900
N141        N  0.99746250  0.34627981  0.80056146    -0.77800
C142        C  0.98429611  0.33572026  0.81503333     0.83000
N143        N  0.94506563  0.33289784  0.81961144    -0.79500
C144        C  0.56480702  0.32898768  0.84325582     0.02500
C145        C  0.60922319  0.33685675  0.84122343     0.02500
C146        C  0.61630492  0.29956725  0.83959620     0.02500
C147        C  0.57922227  0.25450362  0.84046891     0.02500
C148        C  0.53472538  0.24673365  0.84211011     0.02500
C149        C  0.52806925  0.28394890  0.84439830     0.02500
O150        O  0.83149233  0.89149939  0.03802068    -0.78300
C151        C  0.96510556  0.90925462  0.03769095     0.82800
O152        O  0.91926294  0.04319524  0.02243373    -0.79400
O153        O  0.00177909  0.98354899  0.99421840    -0.80900
O154        O  0.85355706  0.84696687  0.98988758    -0.80700
O155        O  0.79154430  0.85566915  0.01793834    -0.79300
Zn156      Zn  0.89434152  0.93653331  0.03236516     1.55700
O157        O  0.92781907  0.87405629  0.99120606    -0.80700
Cd158      Cd  0.84275918  0.89167830  0.00222315     1.59700
Cd159      Cd  0.91637355  0.00204252  0.00471865     1.59600
O160        O  0.82123621  0.92206860  0.98695150    -0.80700
O161        O  0.90121922  0.93968229  0.01128812    -1.91200
Cd162      Cd  0.95149140  0.92854801  0.00566770     1.59900
O163        O  0.86997209  0.99671461  0.98892351    -0.80600
O164        O  0.97835949  0.91414315  0.02418317    -0.79300
C165        C  0.91619667  0.03478276  0.03639483     0.83300
C166        C  0.79457143  0.86175514  0.03202350     0.82900
O167        O  0.93354722  0.91615996  0.04186638    -0.78200
C168        C  0.88871492  0.84557593  0.98607495     0.83700
O169        O  0.90821709  0.99608957  0.04115555    -0.78300
C170        C  0.83576423  0.96302974  0.98280989     0.83800
C171        C  0.00627791  0.02156938  0.99012485     0.84200
O172        O  0.97763856  0.03348638  0.99367498    -0.80800
O173        O  0.18298868  0.55371221  0.70480820    -0.78300
C174        C  0.32077140  0.58522453  0.69913331     0.82800
O175        O  0.27164994  0.70871481  0.68497485    -0.79400
O176        O  0.32579693  0.63371774  0.65040570    -0.80900
O177        O  0.18498695  0.50508338  0.65580320    -0.80700
O178        O  0.13624626  0.51636388  0.68610858    -0.79300
Zn179      Zn  0.24138044  0.60108391  0.69622596     1.55700
O180        O  0.25780209  0.52452504  0.65757052    -0.80700
Cd181      Cd  0.17869598  0.55235340  0.66830100     1.59700
Cd182      Cd  0.25353608  0.66162080  0.66760629     1.59600
O183        O  0.14997578  0.58075754  0.65473260    -0.80700
O184        O  0.24054358  0.60062971  0.67496129    -1.91200
Cd185      Cd  0.28871841  0.58809302  0.66757431     1.59900
O186        O  0.19834100  0.65569334  0.65610163    -0.80600
O187        O  0.32974789  0.58845841  0.68518396    -0.79300
C188        C  0.27087920  0.70145946  0.69899894     0.83300
C189        C  0.14513800  0.52179707  0.70003144     0.82900
O190        O  0.28722399  0.58742920  0.70415403    -0.78200
C191        C  0.21745037  0.49788950  0.65298306     0.83700
O192        O  0.25856600  0.66211421  0.70424363    -0.78300
C193        C  0.16200570  0.62169829  0.65112178     0.83800
C194        C  0.32630395  0.66907614  0.64520288     0.84200
O195        O  0.30295322  0.68440697  0.65124464    -0.80800
C196        C  0.87683715  0.33791731  0.81505782    -0.11700
C197        C  0.86564265  0.37174958  0.81187110     0.03700
C198        C  0.82407143  0.36603757  0.81667242    -0.12300
C199        C  0.79326690  0.32705841  0.82469983     0.18600
C200        C  0.80446662  0.29329845  0.82792529    -0.09300
C201        C  0.84619025  0.29917722  0.82324750    -0.02300
H202        H  0.81571125  0.39217421  0.81416060     0.05100
C203        C  0.74866065  0.32114216  0.82884329     0.20600
H204        H  0.85423463  0.27277603  0.82568169     0.10300
C205        C  0.71749611  0.31404789  0.81747570    -0.15700
C206        C  0.67472151  0.30766541  0.82084904     0.03300
C207        C  0.66218100  0.30752504  0.83584527    -0.11000
C208        C  0.69354226  0.31517205  0.84723251    -0.01000
C209        C  0.73686239  0.32280401  0.84381498    -0.06200
H210        H  0.72653750  0.31347016  0.80591140     0.06300
H211        H  0.68443261  0.31555140  0.85878897     0.09700
Br212      Br  0.76291744  0.23754614  0.83794971    -0.05900
Br213      Br  0.90678231  0.42748760  0.80178834    -0.02800
Br214      Br  0.63501862  0.30014521  0.80453744     0.00000
Br215      Br  0.77943965  0.33746242  0.85982044    -0.04300
C216        C  0.98818589  0.36876056  0.77519931    -0.11700
C217        C  0.01108410  0.35067341  0.76713264     0.03700
C218        C  0.03067226  0.36943555  0.75328251    -0.12300
C219        C  0.02856331  0.40659565  0.74734572     0.18600
C220        C  0.00313964  0.42258807  0.75489229    -0.09300
C221        C  0.98296590  0.40343576  0.76862441    -0.02300
H222        H  0.04945353  0.35634600  0.74741842     0.05100
C223        C  0.05762141  0.43191364  0.73445420     0.20600
H224        H  0.96527249  0.41755839  0.77457055     0.10300
C225        C  0.03825166  0.43597154  0.72107436    -0.15700
C226        C  0.06558272  0.46464472  0.70950143     0.03300
C227        C  0.11323443  0.48929654  0.71123052    -0.11000
C228        C  0.13223006  0.48328350  0.72437784    -0.01000
C229        C  0.10515856  0.45533469  0.73590125    -0.06200
H230        H  0.00167528  0.41803719  0.71986489     0.06300
H231        H  0.16872227  0.50110560  0.72587584     0.09700
Br232      Br  0.99847836  0.47334401  0.74767576    -0.05900
Br233      Br  0.01651889  0.30026740  0.77425828    -0.02800
Br234      Br  0.03569918  0.47134751  0.69232231     0.00000
Br235      Br  0.13541171  0.45333073  0.75377200    -0.04300
C236        C  0.27348246  0.24437642  0.87637861    -0.11700
C237        C  0.30630667  0.28716318  0.87056363     0.03700
C238        C  0.34759291  0.29335485  0.86519879    -0.12300
C239        C  0.35694994  0.25761868  0.86565381     0.18600
C240        C  0.32474099  0.21535221  0.87178900    -0.09300
C241        C  0.28348675  0.20903762  0.87706141    -0.02300
H242        H  0.37275688  0.32631318  0.86081133     0.05100
C243        C  0.40076903  0.26504698  0.85997687     0.20600
H244        H  0.25883524  0.17605386  0.88157315     0.10300
C245        C  0.43324852  0.26777374  0.87017513    -0.15700
C246        C  0.47449014  0.27334992  0.86518509     0.03300
C247        C  0.48358471  0.27599187  0.84974796    -0.11000
C248        C  0.45117733  0.27334660  0.83953641    -0.01000
C249        C  0.41007471  0.26826928  0.84455529    -0.06200
H250        H  0.42640016  0.26549302  0.88205839     0.06300
H251        H  0.45803858  0.27558860  0.82766197     0.09700
Br252      Br  0.33517092  0.16491496  0.87288979    -0.05900
Br253      Br  0.29832410  0.33919189  0.87072938    -0.02800
Br254      Br  0.51746437  0.27752619  0.87989357     0.00000
Br255      Br  0.36733765  0.26504999  0.82998539    -0.04300
C256        C  0.01140304  0.32508875  0.82543672    -0.11700
C257        C  0.01938510  0.34020559  0.84042711     0.03700
C258        C  0.04441483  0.32803535  0.84986163    -0.12300
C259        C  0.06152248  0.30081663  0.84460586     0.18600
C260        C  0.05387650  0.28608024  0.82967000    -0.09300
C261        C  0.02936846  0.29853842  0.82020912    -0.02300
H262        H  0.05050833  0.33974496  0.86133260     0.05100
C263        C  0.08672850  0.28720434  0.85477720     0.20600
H264        H  0.02348685  0.28652475  0.80877973     0.10300
C265        C  0.06473632  0.24285046  0.86059641    -0.15700
C266        C  0.08859118  0.22692202  0.86895944     0.03300
C267        C  0.13550734  0.25581680  0.87163984    -0.11000
C268        C  0.15720413  0.30057326  0.86601551    -0.01000
C269        C  0.13313540  0.31643919  0.85771691    -0.06200
H270        H  0.02910970  0.22004498  0.85819496     0.06300
H271        H  0.19308241  0.32325202  0.86802744     0.09700
Br272      Br  0.07617083  0.24866691  0.82173206    -0.05900
Br273      Br  0.99916482  0.37932300  0.84843617    -0.02800
Br274      Br  0.05587123  0.16418866  0.87511251     0.00000
Br275      Br  0.16520748  0.37759616  0.85012156    -0.04300
C276        C  0.04278444  0.05025671  0.97952308    -0.11700
C277        C  0.06019668  0.09769370  0.97826914     0.03700
C278        C  0.08545754  0.12107386  0.96567253    -0.12300
C279        C  0.09373915  0.09790865  0.95431883     0.18600
C280        C  0.07968498  0.05159214  0.95610400    -0.09300
C281        C  0.05472395  0.02819637  0.96870811    -0.02300
H282        H  0.09707887  0.15705987  0.96442062     0.05100
C283        C  0.11331736  0.12160321  0.94015028     0.20600
H284        H  0.04173090  0.99182823  0.96944135     0.10300
C285        C  0.16023915  0.14393419  0.93804135    -0.15700
C286        C  0.17989083  0.16853958  0.92493831     0.03300
C287        C  0.15199756  0.17140029  0.91369217    -0.11000
C288        C  0.10469493  0.14778822  0.91584574    -0.01000
C289        C  0.08534151  0.12290201  0.92887575    -0.06200
H290        H  0.18170936  0.14265772  0.94673776     0.06300
H291        H  0.08244541  0.14861314  0.90737276     0.09700
Br292      Br  0.09031970  0.01816629  0.94098113    -0.05900
Br293      Br  0.05019357  0.13221183  0.99319415    -0.02800
Br294      Br  0.24495281  0.19868715  0.92386963     0.00000
Br295      Br  0.02047779  0.09116673  0.93086438    -0.04300
C296        C  0.82312572  0.60325528  0.86534721    -0.11700
C297        C  0.77684132  0.58914321  0.86750560     0.03700
C298        C  0.74335310  0.54583821  0.86278916    -0.12300
C299        C  0.75521149  0.51604728  0.85613266     0.18600
C300        C  0.80112545  0.52983929  0.85402844    -0.09300
C301        C  0.83468720  0.57340475  0.85845110    -0.02300
H302        H  0.70789884  0.53510360  0.86445820     0.05100
C303        C  0.71921430  0.46993358  0.85202481     0.20600
H304        H  0.87001214  0.58345123  0.85691938     0.10300
C305        C  0.70173797  0.46132622  0.83745201    -0.15700
C306        C  0.66669429  0.41788823  0.83342075     0.03300
C307        C  0.64850682  0.38278826  0.84417338    -0.11000
C308        C  0.66711896  0.39135345  0.85859714    -0.01000
C309        C  0.70218246  0.43449831  0.86257935    -0.06200
H310        H  0.71538291  0.48848732  0.82923162     0.06300
H311        H  0.65344519  0.36446218  0.86691865     0.09700
Br312      Br  0.81923331  0.48933771  0.84580611    -0.05900
Br313      Br  0.75697402  0.62764601  0.87630285    -0.02800
Br314      Br  0.64578585  0.40832586  0.81318218     0.00000
Br315      Br  0.72556270  0.44367045  0.88256218    -0.04300
C316        C  0.88819947  0.71997521  0.90428809    -0.11700
C317        C  0.90205289  0.76600609  0.90707456     0.03700
C318        C  0.90026244  0.77990372  0.92158407    -0.12300
C319        C  0.88478339  0.74864700  0.93344103     0.18600
C320        C  0.86977794  0.70251403  0.93067668    -0.09300
C321        C  0.87146660  0.68844506  0.91614415    -0.02300
H322        H  0.91093405  0.81533943  0.92365784     0.05100
C323        C  0.88455335  0.76554670  0.94852777     0.20600
H324        H  0.86058503  0.65293154  0.91415646     0.10300
C325        C  0.84376620  0.75881354  0.95447278    -0.15700
C326        C  0.84344227  0.78166875  0.96739778     0.03300
C327        C  0.88504868  0.81252978  0.97450448    -0.11000
C328        C  0.92538642  0.81588766  0.96908170    -0.01000
C329        C  0.92534763  0.79287990  0.95619285    -0.06200
H330        H  0.81220530  0.73724243  0.94862848     0.06300
H331        H  0.95765739  0.83836281  0.97438287     0.09700
Br332      Br  0.84830659  0.65822731  0.94646985    -0.05900
Br333      Br  0.92103711  0.81084968  0.89147755    -0.02800
Br334      Br  0.78484779  0.76980277  0.97399504     0.00000
Br335      Br  0.98206478  0.80146435  0.94895826    -0.04300
C336        C  0.49558208  0.20233757  0.83738468    -0.11700
C337        C  0.47379600  0.16379126  0.84676108     0.03700
C338        C  0.43970351  0.12220733  0.84092480    -0.12300
C339        C  0.42699975  0.11844891  0.82583794     0.18600
C340        C  0.44783049  0.15723811  0.81662040    -0.09300
C341        C  0.48139977  0.19877873  0.82246758    -0.02300
H342        H  0.42347888  0.09248480  0.84811129     0.05100
C343        C  0.39294924  0.07354795  0.81979063     0.20600
H344        H  0.49792917  0.22822483  0.81516189     0.10300
C345        C  0.34774581  0.06278683  0.81826790    -0.15700
C346        C  0.31463862  0.02017658  0.81280903     0.03300
C347        C  0.32659996  0.98729895  0.80891551    -0.11000
C348        C  0.37227018  0.99888261  0.80998403    -0.01000
C349        C  0.40530454  0.04157956  0.81537567    -0.06200
H350        H  0.33826733  0.08774273  0.82127718     0.06300
H351        H  0.38220443  0.97436207  0.80685323     0.09700
Br352      Br  0.43358116  0.15443844  0.79578074    -0.05900
Br353      Br  0.48882502  0.16574000  0.86744668    -0.02800
Br354      Br  0.25450683  0.01015054  0.80996159     0.00000
Br355      Br  0.46705919  0.05526474  0.81633811    -0.04300
C356        C  0.17639044  0.84982354  0.81453340    -0.11700
C357        C  0.15674393  0.80364674  0.81885187     0.03700
C358        C  0.11556306  0.78242314  0.82666343    -0.12300
C359        C  0.09323403  0.80631754  0.83018455     0.18600
C360        C  0.11217032  0.85195121  0.82560458    -0.09300
C361        C  0.15356243  0.87342265  0.81795174    -0.02300
H362        H  0.10131740  0.74736973  0.83028790     0.05100
C363        C  0.05174671  0.78387509  0.83944207     0.20600
H364        H  0.16785500  0.90868290  0.81457814     0.10300
C365        C  0.05560285  0.79084038  0.85490881    -0.15700
C366        C  0.01763360  0.76855432  0.86423647     0.03300
C367        C  0.97436687  0.73845014  0.85801581    -0.11000
C368        C  0.97083289  0.73215578  0.84241446    -0.01000
C369        C  0.00896697  0.75454777  0.83317345    -0.06200
H370        H  0.08863949  0.81318841  0.85978288     0.06300
H371        H  0.93819921  0.70970625  0.83731966     0.09700
Br372      Br  0.08237457  0.88594979  0.82948991    -0.05900
Br373      Br  0.18601966  0.76882129  0.81547152    -0.02800
Br374      Br  0.02885482  0.77902269  0.88531287     0.00000
Br375      Br  0.00117620  0.74434580  0.81204491    -0.04300
C376        C  0.27881233  0.85723834  0.77435783    -0.11700
C377        C  0.31269064  0.88256815  0.76346322     0.03700
C378        C  0.31570329  0.86089862  0.75056889    -0.12300
C379        C  0.28595896  0.81439024  0.74822510     0.18600
C380        C  0.25349924  0.78873468  0.75916809    -0.09300
C381        C  0.25011176  0.81006331  0.77202654    -0.02300
H382        H  0.34104676  0.88059431  0.74219079     0.05100
C383        C  0.28877120  0.79274846  0.73430388     0.20600
H384        H  0.22433049  0.78943758  0.78015524     0.10300
C385        C  0.31396485  0.77058055  0.73424516    -0.15700
C386        C  0.31158443  0.74368943  0.72210377     0.03300
C387        C  0.28333695  0.73847148  0.70982674    -0.11000
C388        C  0.26110234  0.76367609  0.70936378    -0.01000
C389        C  0.26357494  0.79065659  0.72154070    -0.06200
H390        H  0.33411224  0.77277545  0.74391686     0.06300
H391        H  0.23936515  0.75998016  0.69999245     0.09700
Br392      Br  0.21236551  0.72450200  0.75682195    -0.05900
Br393      Br  0.35516129  0.94688386  0.76470658    -0.02800
Br394      Br  0.34695283  0.71410060  0.72290052     0.00000
Br395      Br  0.22943798  0.82136351  0.72077331    -0.04300
C396        C  0.62983506  0.04444833  0.87023374    -0.11700
C397        C  0.66552474  0.09003714  0.86906995     0.03700
C398        C  0.65706871  0.12297095  0.86302383    -0.12300
C399        C  0.61337057  0.11139564  0.85828054     0.18600
C400        C  0.57812710  0.06565121  0.85893368    -0.09300
C401        C  0.58666263  0.03257109  0.86477378    -0.02300
H402        H  0.68449043  0.15804156  0.86230509     0.05100
C403        C  0.60486688  0.14795662  0.85349725     0.20600
H404        H  0.55894038  0.99768901  0.86559328     0.10300
C405        C  0.59282891  0.14987175  0.83862903    -0.15700
C406        C  0.58436622  0.18419959  0.83390804     0.03300
C407        C  0.58827827  0.21733281  0.84419272    -0.11000
C408        C  0.60102942  0.21562980  0.85897282    -0.01000
C409        C  0.60897842  0.18122594  0.86370874    -0.06200
H410        H  0.58998210  0.12452282  0.83069589     0.06300
H411        H  0.60389135  0.24086217  0.86697157     0.09700
Br412      Br  0.51716194  0.04710774  0.85303131    -0.05900
Br413      Br  0.72664522  0.10922625  0.87503438    -0.02800
Br414      Br  0.56837593  0.18409978  0.81342084     0.00000
Br415      Br  0.62312738  0.17998470  0.88441585    -0.04300
C416        C  0.68949971  0.99324838  0.91106948    -0.11700
C417        C  0.66858048  0.96969706  0.92430352     0.03700
C418        C  0.69523391  0.97244504  0.93651416    -0.12300
C419        C  0.74265239  0.99843878  0.93569370     0.18600
C420        C  0.76350307  0.02456568  0.92282294    -0.09300
C421        C  0.73671301  0.02209450  0.91061580    -0.02300
H422        H  0.67905889  0.95248876  0.94643786     0.05100
C423        C  0.76903088  0.99166143  0.94736191     0.20600
H424        H  0.75292075  0.04041273  0.90044197     0.10300
C425        C  0.76855479  0.95022209  0.94752960    -0.15700
C426        C  0.79024361  0.94015284  0.95884904     0.03300
C427        C  0.81267232  0.97203461  0.97044155    -0.11000
C428        C  0.81401700  0.01410878  0.96998857    -0.01000
C429        C  0.79226389  0.02400017  0.95859133    -0.06200
H430        H  0.75100871  0.92546104  0.93876523     0.06300
H431        H  0.83133880  0.03913927  0.97868893     0.09700
Br432      Br  0.82824312  0.06042469  0.92090661    -0.05900
Br433      Br  0.60389034  0.93257493  0.92605747    -0.02800
Br434      Br  0.78952420  0.88334795  0.95714627     0.00000
Br435      Br  0.79384337  0.08119163  0.95908846    -0.04300
C436        C  0.50664270  0.54010934  0.82143317    -0.11700
C437        C  0.55034876  0.54963195  0.82566651     0.03700
C438        C  0.55720249  0.51411254  0.83010064    -0.12300
C439        C  0.52091040  0.46910327  0.83064176     0.18600
C440        C  0.47671832  0.45996364  0.82731965    -0.09300
C441        C  0.47003083  0.49530297  0.82243177    -0.02300
H442        H  0.59122008  0.52144774  0.83277277     0.05100
C443        C  0.53058566  0.43234219  0.83410826     0.20600
H444        H  0.43616497  0.48787912  0.81948542     0.10300
C445        C  0.54712728  0.43053820  0.84830426    -0.15700
C446        C  0.55890556  0.39756581  0.85169609     0.03300
C447        C  0.55475950  0.36619740  0.84064757    -0.11000
C448        C  0.53839532  0.36830861  0.82645751    -0.01000
C449        C  0.52651856  0.40101118  0.82309128    -0.06200
H450        H  0.55074241  0.45485215  0.85678547     0.06300
H451        H  0.53507689  0.34431354  0.81789066     0.09700
Br452      Br  0.42462399  0.40020909  0.82970059    -0.05900
Br453      Br  0.60236968  0.60990477  0.82458635    -0.02800
Br454      Br  0.57923144  0.39674818  0.87155917     0.00000
Br455      Br  0.50699605  0.40259149  0.80307951    -0.04300
C456        C  0.52072190  0.69000448  0.82633349    -0.11700
C457        C  0.54815637  0.73447849  0.82060424     0.03700
C458        C  0.56336175  0.77203025  0.83012627    -0.12300
C459        C  0.55073639  0.76609719  0.84522094     0.18600
C460        C  0.52178344  0.72201757  0.85078902    -0.09300
C461        C  0.50765076  0.68437916  0.84142579    -0.02300
H462        H  0.58518712  0.80606414  0.82575530     0.05100
C463        C  0.56725819  0.80651137  0.85485862     0.20600
H464        H  0.48613365  0.65048138  0.84594503     0.10300
C465        C  0.53919635  0.82486853  0.85735517    -0.15700
C466        C  0.55485174  0.86504206  0.86553003     0.03300
C467        C  0.59935897  0.88746661  0.87131206    -0.11000
C468        C  0.62669116  0.86786472  0.86939136    -0.01000
C469        C  0.61103298  0.82775476  0.86114703    -0.06200
H470        H  0.50519063  0.80816221  0.85274504     0.06300
H471        H  0.66090024  0.88468078  0.87383542     0.09700
Br472      Br  0.50084875  0.71179895  0.87107419    -0.05900
Br473      Br  0.56784713  0.74614816  0.80018109    -0.02800
Br474      Br  0.51356510  0.88687090  0.86889145     0.00000
Br475      Br  0.65070025  0.80364089  0.85850550    -0.04300
C476        C  0.34994812  0.58063961  0.71027654    -0.11700
C477        C  0.33079255  0.54559649  0.72108342     0.03700
C478        C  0.35512616  0.54855415  0.73402930    -0.12300
C479        C  0.39825725  0.58646610  0.73649609     0.18600
C480        C  0.41854810  0.62005043  0.72530870    -0.09300
C481        C  0.39442191  0.61685614  0.71225287    -0.02300
H482        H  0.33945274  0.52239042  0.74253402     0.05100
C483        C  0.41971397  0.59229018  0.75129672     0.20600
H484        H  0.40915408  0.64436481  0.70416621     0.10300
C485        C  0.44205907  0.56840954  0.75474694    -0.15700
C486        C  0.46209468  0.57280846  0.76878414     0.03300
C487        C  0.45927054  0.60126909  0.77980144    -0.11000
C488        C  0.43701640  0.62536412  0.77614522    -0.01000
C489        C  0.41721396  0.62091352  0.76210508    -0.06200
H490        H  0.44426624  0.54654379  0.74640879     0.06300
H491        H  0.43413272  0.64716910  0.78434053     0.09700
Br492      Br  0.47782226  0.67229778  0.72792470    -0.05900
Br493      Br  0.27050690  0.49425564  0.71897218    -0.02800
Br494      Br  0.49469014  0.54083329  0.77157450     0.00000
Br495      Br  0.38588053  0.65358581  0.75830255    -0.04300
C496        C  0.83664920  0.18199704  0.47701299    -0.11700
C497        C  0.80477077  0.13516747  0.47510702     0.03700
C498        C  0.81618646  0.10235304  0.47928651    -0.12300
C499        C  0.85884585  0.11534533  0.48545951     0.18600
C500        C  0.89072715  0.16186657  0.48722833    -0.09300
C501        C  0.87941872  0.19458346  0.48311294    -0.02300
H502        H  0.79156451  0.06650335  0.47783692     0.05100
C503        C  0.87058026  0.08018784  0.48927411     0.20600
H504        H  0.90459504  0.23020585  0.48452677     0.10300
C505        C  0.88185947  0.06009406  0.47770138    -0.15700
C506        C  0.89539584  0.02841062  0.48080200     0.03300
C507        C  0.89675263  0.01549877  0.49569312    -0.11000
C508        C  0.88543052  0.03552266  0.50730879    -0.01000
C509        C  0.87260127  0.06790435  0.50419669    -0.06200
H510        H  0.88097541  0.06980974  0.46621875     0.06300
H511        H  0.88677029  0.02605891  0.51878529     0.09700
Br512      Br  0.95066914  0.18230374  0.49479058    -0.05900
Br513      Br  0.74440456  0.11367196  0.46781044    -0.02800
Br514      Br  0.91252538  0.00452908  0.46427520     0.00000
Br515      Br  0.85818378  0.09448553  0.52060268    -0.04300
C516        C  0.98959723  0.70386959  0.53044797    -0.11700
C517        C  0.02398394  0.74993386  0.53225153     0.03700
C518        C  0.01719295  0.78489352  0.52691965    -0.12300
C519        C  0.97640446  0.77501511  0.51991588     0.18600
C520        C  0.94242253  0.72911588  0.51793103    -0.09300
C521        C  0.94937313  0.69416981  0.52304603    -0.02300
H522        H  0.04385664  0.82013148  0.52831429     0.05100
C523        C  0.96929615  0.81273436  0.51500741     0.20600
H524        H  0.92243064  0.65908826  0.52163292     0.10300
C525        C  0.96385194  0.81853856  0.49975542    -0.15700
C526        C  0.95371513  0.85162130  0.49486753     0.03300
C527        C  0.94926127  0.87995561  0.50535951    -0.11000
C528        C  0.95650790  0.87529163  0.52052625    -0.01000
C529        C  0.96615393  0.84201504  0.52543292    -0.06200
H530        H  0.96671767  0.79642259  0.49157038     0.06300
H531        H  0.95340047  0.89719803  0.52873324     0.09700
Br532      Br  0.88475993  0.71237027  0.50914367    -0.05900
Br533      Br  0.08165864  0.76739656  0.54121047    -0.02800
Br534      Br  0.94593236  0.85628505  0.47389382     0.00000
Br535      Br  0.97178697  0.83605213  0.54653858    -0.04300
C536        C  0.85776815  0.33310422  0.48792497    -0.11700
C537        C  0.90298189  0.35413263  0.49317428     0.03700
C538        C  0.92123391  0.39498900  0.50116585    -0.12300
C539        C  0.89519951  0.41538031  0.50407863     0.18600
C540        C  0.85001866  0.39422736  0.49909697    -0.09300
C541        C  0.83173364  0.35357636  0.49100652    -0.02300
H542        H  0.95620782  0.41144162  0.50489203     0.05100
C543        C  0.91625774  0.45961602  0.51185747     0.20600
H544        H  0.79698299  0.33787415  0.48710004     0.10300
C545        C  0.93586121  0.49987403  0.50341937    -0.15700
C546        C  0.95619465  0.54253585  0.51039003     0.03300
C547        C  0.95695490  0.54524812  0.52617000    -0.11000
C548        C  0.93756367  0.50456527  0.53453961    -0.01000
C549        C  0.91729942  0.46206514  0.52751518    -0.06200
H550        H  0.93558482  0.49803651  0.49133043     0.06300
H551        H  0.93762886  0.50571119  0.54663503     0.09700
Br552      Br  0.81231964  0.41986684  0.50312600    -0.05900
Br553      Br  0.94288582  0.33126274  0.48878278    -0.02800
Br554      Br  0.98456425  0.59525385  0.49765225     0.00000
Br555      Br  0.89092162  0.40813739  0.53967260    -0.04300
C556        C  0.03531951  0.63500104  0.57060268    -0.11700
C557        C  0.03080226  0.65892958  0.58276976     0.03700
C558        C  0.05014993  0.65922170  0.59661737    -0.12300
C559        C  0.07401197  0.63604932  0.59859298     0.18600
C560        C  0.07853662  0.61217279  0.58654461    -0.09300
C561        C  0.05916098  0.61165365  0.57273301    -0.02300
H562        H  0.04635840  0.67736852  0.60591801     0.05100
C563        C  0.09442507  0.63713464  0.61322906     0.20600
H564        H  0.06302892  0.59309548  0.56357822     0.10300
C565        C  0.06884369  0.60387919  0.62397525    -0.15700
C566        C  0.08921323  0.60022583  0.63710829     0.03300
C567        C  0.13607197  0.63001657  0.63950149    -0.11000
C568        C  0.16055685  0.66545191  0.62919490    -0.01000
C569        C  0.14014951  0.66905582  0.61613447    -0.06200
H570        H  0.03327880  0.57984575  0.62192022     0.06300
H571        H  0.19650198  0.68886527  0.63080791     0.09700
Br572      Br  0.11091095  0.57978076  0.58849346    -0.05900
Br573      Br  0.99619066  0.68918352  0.58163318    -0.02800
Br574      Br  0.05139342  0.55457644  0.65140456     0.00000
Br575      Br  0.17665215  0.71632464  0.60211524    -0.04300
C576        C  0.85502612  0.85355039  0.49859515    -0.11700
C577        C  0.83270379  0.82213232  0.51019580     0.03700
C578        C  0.79740417  0.77846633  0.50669833    -0.12300
C579        C  0.78416807  0.76628290  0.49179872     0.18600
C580        C  0.80703257  0.79766903  0.48024340    -0.09300
C581        C  0.84262406  0.84072198  0.48373001    -0.02300
H582        H  0.77920662  0.75447587  0.51560585     0.05100
C583        C  0.74302961  0.72306081  0.48855713     0.20600
H584        H  0.85971108  0.86511509  0.47481413     0.10300
C585        C  0.70118890  0.71923149  0.49183747    -0.15700
C586        C  0.66089176  0.68126693  0.48721036     0.03300
C587        C  0.66247546  0.64644159  0.47918501    -0.11000
C588        C  0.70450358  0.64978350  0.47633037    -0.01000
C589        C  0.74475869  0.68775583  0.48103956    -0.06200
H590        H  0.70003942  0.74686031  0.49746208     0.06300
H591        H  0.70603111  0.62302533  0.47026224     0.09700
Br592      Br  0.78849429  0.78509169  0.45970481    -0.05900
Br593      Br  0.84729393  0.83775233  0.53080722    -0.02800
Br594      Br  0.60559865  0.68152119  0.49087415     0.00000
Br595      Br  0.80124497  0.69070950  0.47670023    -0.04300
C596        C  0.98968353  0.04060761  0.50451358    -0.11700
C597        C  0.00035857  0.04962342  0.51978282     0.03700
C598        C  0.03314975  0.09314293  0.52435707    -0.12300
C599        C  0.05483396  0.12867704  0.51397651     0.18600
C600        C  0.04411291  0.11966802  0.49865361    -0.09300
C601        C  0.01173029  0.07566581  0.49401887    -0.02300
H602        H  0.04160921  0.09940137  0.53611249     0.05100
C603        C  0.08925257  0.17434165  0.51945908     0.20600
H604        H  0.00370478  0.06881415  0.48226491     0.10300
C605        C  0.13431509  0.19317617  0.51475759    -0.15700
C606        C  0.16841329  0.23501750  0.52029599     0.03300
C607        C  0.15768672  0.25872746  0.53103995    -0.11000
C608        C  0.11240641  0.23953268  0.53577126    -0.01000
C609        C  0.07833348  0.19792717  0.53004894    -0.06200
H610        H  0.14318377  0.17469440  0.50690580     0.06300
H611        H  0.10329454  0.25711186  0.54390440     0.09700
Br612      Br  0.07165488  0.16640866  0.48372656    -0.05900
Br613      Br  0.97045384  0.00352497  0.53485612    -0.02800
Br614      Br  0.22888090  0.25536284  0.51325556     0.00000
Br615      Br  0.01723494  0.17529347  0.53681454    -0.04300
C616        C  0.30537637  0.40022344  0.52786625    -0.11700
C617        C  0.34857447  0.42241756  0.53477390     0.03700
C618        C  0.38731130  0.44888513  0.52616762    -0.12300
C619        C  0.38387753  0.45354636  0.51076469     0.18600
C620        C  0.34106015  0.43189265  0.50386724    -0.09300
C621        C  0.30222226  0.40540015  0.51241036    -0.02300
H622        H  0.42042417  0.46499437  0.53143547     0.05100
C623        C  0.42555731  0.47873091  0.50190463     0.20600
H624        H  0.26941348  0.38873214  0.50694052     0.10300
C625        C  0.44125823  0.45407586  0.49389174    -0.15700
C626        C  0.48058586  0.47657881  0.48527765     0.03300
C627        C  0.50449184  0.52456548  0.48451551    -0.11000
C628        C  0.48930707  0.54924746  0.49285658    -0.01000
C629        C  0.45000123  0.52662370  0.50151993    -0.06200
H630        H  0.42299685  0.41717158  0.49446445     0.06300
H631        H  0.50766665  0.58615869  0.49245333     0.09700
Br632      Br  0.33428920  0.43772697  0.48282966    -0.05900
Br633      Br  0.35788154  0.41505728  0.55553861    -0.02800
Br634      Br  0.50182395  0.44024287  0.47574988     0.00000
Br635      Br  0.43027793  0.56212970  0.51237819    -0.04300
C636        C  0.20879071  0.46031520  0.64272399    -0.11700
C637        C  0.23690834  0.44088083  0.64217537     0.03700
C638        C  0.23559743  0.41577136  0.62959732    -0.12300
C639        C  0.20571513  0.40883713  0.61780211     0.18600
C640        C  0.17388662  0.42318154  0.61924754    -0.09300
C641        C  0.17553679  0.44866505  0.63163480    -0.02300
H642        H  0.25935356  0.40359671  0.62868899     0.05100
C643        C  0.21230418  0.39340558  0.60318716     0.20600
H644        H  0.15294911  0.46236518  0.63194066     0.10300
C645        C  0.18925460  0.34695661  0.59967563    -0.15700
C646        C  0.19115313  0.33229563  0.58521386     0.03300
C647        C  0.21649859  0.36477773  0.57398943    -0.11000
C648        C  0.24021307  0.41129814  0.57780021    -0.01000
C649        C  0.23830683  0.42566533  0.59219859    -0.06200
H650        H  0.16914637  0.32211062  0.60815884     0.06300
H651        H  0.25994814  0.43694966  0.56948076     0.09700
Br652      Br  0.13071925  0.41280923  0.60377707    -0.05900
Br653      Br  0.27735643  0.44739595  0.65816588    -0.02800
Br654      Br  0.15972479  0.26763556  0.58195007     0.00000
Br655      Br  0.27071366  0.48997688  0.59627518    -0.04300
C656        C  0.24134892  0.02371397  0.48467691    -0.11700
C657        C  0.23428011  0.06087786  0.48647161     0.03700
C658        C  0.19111883  0.05292656  0.49025188    -0.12300
C659        C  0.15495812  0.00825549  0.49214173     0.18600
C660        C  0.16238754  0.97132894  0.49075383    -0.09300
C661        C  0.20556393  0.97929896  0.48724304    -0.02300
H662        H  0.18545013  0.08143233  0.49134337     0.05100
C663        C  0.10886827  0.99998674  0.49455235     0.20600
H664        H  0.21049579  0.95050260  0.48556063     0.10300
C665        C  0.08273221  0.99710047  0.48208781    -0.15700
C666        C  0.03715601  0.98415780  0.48374575     0.03300
C667        C  0.01735269  0.97432666  0.49806538    -0.11000
C668        C  0.04383029  0.97803157  0.51056401    -0.01000
C669        C  0.08937516  0.99064855  0.50887014    -0.06200
H670        H  0.09748328  0.00358303  0.47102714     0.06300
H671        H  0.02901499  0.97061569  0.52159277     0.09700
Br672      Br  0.11365159  0.90935411  0.49235732    -0.05900
Br673      Br  0.28241144  0.12270485  0.48381804    -0.02800
Br674      Br  0.00305107  0.97852974  0.46604144     0.00000
Br675      Br  0.12353940  0.99356718  0.52626866    -0.04300
C676        C  0.60713541  0.86587829  0.52912856    -0.11700
C677        C  0.62264822  0.83470565  0.53147671     0.03700
C678        C  0.66581752  0.84527981  0.52639359    -0.12300
C679        C  0.69425359  0.88643575  0.51893376     0.18600
C680        C  0.67879291  0.91722207  0.51643757    -0.09300
C681        C  0.63582210  0.90685435  0.52148118    -0.02300
H682        H  0.67729817  0.82117108  0.52823547     0.05100
C683        C  0.74034947  0.89738973  0.51413800     0.20600
H684        H  0.62509708  0.93150362  0.51954527     0.10300
C685        C  0.75019909  0.89839580  0.49886311    -0.15700
C686        C  0.79397911  0.91051656  0.49401875     0.03300
C687        C  0.82882785  0.92178988  0.50457287    -0.11000
C688        C  0.81878007  0.92071847  0.51982178    -0.01000
C689        C  0.77510835  0.90849730  0.52464528    -0.06200
H690        H  0.72373250  0.89003536  0.49067496     0.06300
H691        H  0.84528962  0.92967483  0.52804609     0.09700
Br692      Br  0.71594944  0.97476301  0.50666434    -0.05900
Br693      Br  0.58628339  0.77613901  0.54072689    -0.02800
Br694      Br  0.80381891  0.91137929  0.47296900     0.00000
Br695      Br  0.76495063  0.90903755  0.54568943    -0.04300
C696        C  0.47863805  0.89138063  0.52223635    -0.11700
C697        C  0.49938992  0.93908700  0.52077245     0.03700
C698        C  0.47692018  0.95798654  0.51311675    -0.12300
C699        C  0.43400353  0.92988544  0.50678460     0.18600
C700        C  0.41371527  0.88222542  0.50798862    -0.09300
C701        C  0.43579766  0.86334747  0.51584421    -0.02300
H702        H  0.49268050  0.99470476  0.51225377     0.05100
C703        C  0.41057664  0.95079786  0.49911828     0.20600
H704        H  0.41971574  0.82662171  0.51682463     0.10300
C705        C  0.42275498  0.96674267  0.48447472    -0.15700
C706        C  0.40064100  0.98587973  0.47671112     0.03300
C707        C  0.36547824  0.98983620  0.48378054    -0.11000
C708        C  0.35392167  0.97381757  0.49861235    -0.01000
C709        C  0.37596987  0.95451641  0.50621493    -0.06200
H710        H  0.44939851  0.96375322  0.47897940     0.06300
H711        H  0.32749478  0.97619732  0.50448052     0.09700
Br712      Br  0.35636491  0.84181145  0.49881184    -0.05900
Br713      Br  0.55699214  0.97974433  0.52977595    -0.02800
Br714      Br  0.42073510  0.00438573  0.45654295     0.00000
Br715      Br  0.35796435  0.93398550  0.52637392    -0.04300
C716        C  0.47459985  0.79570685  0.56391989    -0.11700
C717        C  0.49736219  0.79419164  0.57695037     0.03700
C718        C  0.47238201  0.77080967  0.58966708    -0.12300
C719        C  0.42477604  0.74828536  0.58976598     0.18600
C720        C  0.40198550  0.74868445  0.57666668    -0.09300
C721        C  0.42681443  0.77219203  0.56398852    -0.02300
H722        H  0.49033709  0.77140525  0.59973738     0.05100
C723        C  0.39987152  0.72763974  0.60392251     0.20600
H724        H  0.40846766  0.77239507  0.55412433     0.10300
C725        C  0.37435566  0.74495318  0.61041734    -0.15700
C726        C  0.35060093  0.72715845  0.62379150     0.03300
C727        C  0.35299472  0.69151599  0.63134751    -0.11000
C728        C  0.37918508  0.67465740  0.62480134    -0.01000
C729        C  0.40218259  0.69213723  0.61125491    -0.06200
H730        H  0.37263962  0.77253048  0.60493568     0.06300
H731        H  0.38124678  0.64702732  0.63007162     0.09700
Br732      Br  0.33693959  0.71742893  0.57541542    -0.05900
Br733      Br  0.56224611  0.82627328  0.57877252    -0.02800
Br734      Br  0.31477053  0.75306950  0.63034199     0.00000
Br735      Br  0.43440769  0.66474806  0.60283662    -0.04300
C736        C  0.66126998  0.26167939  0.37712111    -0.11700
C737        C  0.70796632  0.27607301  0.37678758     0.03700
C738        C  0.72829349  0.26823082  0.38922238    -0.12300
C739        C  0.70279842  0.24590026  0.40200950     0.18600
C740        C  0.65593678  0.22982813  0.40206767    -0.09300
C741        C  0.63565454  0.23757412  0.38971255    -0.02300
H742        H  0.76457055  0.28143377  0.38919606     0.05100
C743        C  0.72656016  0.24628105  0.41592540     0.20600
H744        H  0.59972054  0.22602846  0.39018944     0.10300
C745        C  0.75001043  0.28724785  0.42378475    -0.15700
C746        C  0.77195746  0.29003293  0.43727478     0.03300
C747        C  0.77135802  0.25076860  0.44319461    -0.11000
C748        C  0.74739157  0.20952123  0.43518515    -0.01000
C749        C  0.72499000  0.20702528  0.42174742    -0.06200
H750        H  0.75083407  0.31744668  0.41940892     0.06300
H751        H  0.74584981  0.17883470  0.43936662     0.09700
Br752      Br  0.61890297  0.20083046  0.41927964    -0.05900
Br753      Br  0.74657597  0.31067335  0.36048970    -0.02800
Br754      Br  0.80188099  0.34947346  0.44635096     0.00000
Br755      Br  0.69299060  0.14951200  0.41166405    -0.04300
C756        C  0.59740446  0.43759444  0.37118560    -0.11700
C757        C  0.63124495  0.45274826  0.38228663     0.03700
C758        C  0.63040879  0.47870331  0.39421252    -0.12300
C759        C  0.59600411  0.48956327  0.39524747     0.18600
C760        C  0.56449680  0.47777088  0.38353797    -0.09300
C761        C  0.56546057  0.45199045  0.37153491    -0.02300
H762        H  0.65514214  0.48829124  0.40311180     0.05100
C763        C  0.59062051  0.50842776  0.40935703     0.20600
H764        H  0.53918835  0.44033210  0.36308092     0.10300
C765        C  0.61910339  0.55470088  0.41251646    -0.15700
C766        C  0.61645263  0.57273142  0.42626141     0.03300
C767        C  0.58550497  0.54364033  0.43727829    -0.11000
C768        C  0.55615046  0.49751460  0.43378750    -0.01000
C769        C  0.55850782  0.47985992  0.41999917    -0.06200
H770        H  0.64340977  0.57684658  0.40423335     0.06300
H771        H  0.53204868  0.47456750  0.44196022     0.09700
Br772      Br  0.51773560  0.49330907  0.38415489    -0.05900
Br773      Br  0.67800136  0.43707305  0.38190840    -0.02800
Br774      Br  0.65437694  0.63752190  0.42872997     0.00000
Br775      Br  0.51835367  0.41600985  0.41644916    -0.04300
C776        C  0.33813441  0.06601059  0.44065362    -0.11700
C777        C  0.30747977  0.07300189  0.43180697     0.03700
C778        C  0.32188288  0.09625926  0.41817587    -0.12300
C779        C  0.36570886  0.11141914  0.41288462     0.18600
C780        C  0.39519914  0.10209222  0.42112338    -0.09300
C781        C  0.38146515  0.07988725  0.43488277    -0.02300
H782        H  0.29885829  0.10270793  0.41168258     0.05100
C783        C  0.38180932  0.13942489  0.39924511     0.20600
H784        H  0.40551610  0.07483476  0.44127214     0.10300
C785        C  0.40192214  0.18677776  0.40055801    -0.15700
C786        C  0.42694500  0.21541175  0.38875611     0.03300
C787        C  0.43291354  0.19647530  0.37551303    -0.11000
C788        C  0.40849809  0.14888466  0.37369110    -0.01000
C789        C  0.38286080  0.12034337  0.38545557    -0.06200
H790        H  0.39995829  0.20156271  0.41104552     0.06300
H791        H  0.41174303  0.13369746  0.36348341     0.09700
Br792      Br  0.45530694  0.12061295  0.41423014    -0.05900
Br793      Br  0.24503825  0.05058414  0.43700765    -0.02800
Br794      Br  0.45218077  0.27988419  0.39141122     0.00000
Br795      Br  0.35226483  0.05560230  0.38265737    -0.04300
C796        C  0.56845738  0.69275078  0.15397546    -0.11700
C797        C  0.55585143  0.72572158  0.15103825     0.03700
C798        C  0.51348581  0.71797242  0.15564858    -0.12300
C799        C  0.48370758  0.67798645  0.16332038     0.18600
C800        C  0.49777355  0.64700823  0.16737477    -0.09300
C801        C  0.54012313  0.65461697  0.16275559    -0.02300
H802        H  0.50295477  0.74221746  0.15270002     0.05100
C803        C  0.43619174  0.66592820  0.16514940     0.20600
H804        H  0.54949052  0.62914286  0.16513007     0.10300
C805        C  0.40637170  0.64522359  0.15315252    -0.15700
C806        C  0.36051320  0.63143975  0.15450926     0.03300
C807        C  0.34362351  0.63648503  0.16828838    -0.11000
C808        C  0.37375805  0.65759455  0.18023659    -0.01000
C809        C  0.42003170  0.67358480  0.17859019    -0.06200
H810        H  0.41900638  0.64025304  0.14264605     0.06300
H811        H  0.36143077  0.66233002  0.19080948     0.09700
Br812      Br  0.45849306  0.59206981  0.17804405    -0.05900
Br813      Br  0.59486956  0.78152872  0.14061623    -0.02800
Br814      Br  0.32317380  0.60855311  0.13699474     0.00000
Br815      Br  0.46012027  0.70727763  0.19464257    -0.04300
C816        C  0.75599021  0.83445863  0.04224733    -0.11700
C817        C  0.72228412  0.78853440  0.03965222     0.03700
C818        C  0.69346261  0.76244600  0.05138125    -0.12300
C819        C  0.69778997  0.78140842  0.06564152     0.18600
C820        C  0.72988668  0.82768000  0.06795114    -0.09300
C821        C  0.75749219  0.85379430  0.05625412    -0.02300
H822        H  0.66917770  0.72667148  0.04959470     0.05100
C823        C  0.67424516  0.75192085  0.07858421     0.20600
H824        H  0.78273631  0.88899204  0.05852277     0.10300
C825        C  0.68785574  0.72142445  0.08348291    -0.15700
C826        C  0.67620800  0.70191654  0.09772627     0.03300
C827        C  0.65132788  0.71392691  0.10745567    -0.11000
C828        C  0.63370938  0.74061908  0.10183186    -0.01000
C829        C  0.64458565  0.75918910  0.08747697    -0.06200
H830        H  0.70967966  0.71463979  0.07649647     0.06300
H831        H  0.61316329  0.74907213  0.10882988     0.09700
Br832      Br  0.74263880  0.85574327  0.08734790    -0.05900
Br833      Br  0.71652180  0.75814655  0.02104132    -0.02800
Br834      Br  0.69492351  0.65894563  0.10293656     0.00000
Br835      Br  0.62055607  0.79658136  0.08081788    -0.04300
C836        C  0.96089372  0.57775440  0.20525344    -0.11700
C837        C  0.99808150  0.61648019  0.19874077     0.03700
C838        C  0.03429904  0.61329848  0.19290266    -0.12300
C839        C  0.03414727  0.57197394  0.19331555     0.18600
C840        C  0.99804127  0.53384725  0.20036484    -0.09300
C841        C  0.96186747  0.53701818  0.20630704    -0.02300
H842        H  0.06280035  0.64324161  0.18798904     0.05100
C843        C  0.07330137  0.57042884  0.18702965     0.20600
H844        H  0.93356775  0.50700806  0.21125232     0.10300
C845        C  0.10206092  0.56465759  0.19678657    -0.15700
C846        C  0.14247200  0.56875945  0.19167500     0.03300
C847        C  0.15505702  0.57938350  0.17655944    -0.11000
C848        C  0.12534093  0.58314764  0.16660799    -0.01000
C849        C  0.08451364  0.57856811  0.17174124    -0.06200
H850        H  0.09389922  0.55876626  0.20857236     0.06300
H851        H  0.13482243  0.59156846  0.15499800     0.09700
Br852      Br  0.99545087  0.47617506  0.20145502    -0.05900
Br853      Br  0.00243040  0.67508202  0.19801241    -0.02800
Br854      Br  0.18082012  0.56342634  0.20619195     0.00000
Br855      Br  0.04548756  0.58444277  0.15759742    -0.04300
C856        C  0.70404839  0.67668824  0.15378392    -0.11700
C857        C  0.75134437  0.70322970  0.15131422     0.03700
C858        C  0.78084523  0.69295908  0.15900050    -0.12300
C859        C  0.76387746  0.65607137  0.16892630     0.18600
C860        C  0.71682013  0.62925236  0.17125373    -0.09300
C861        C  0.68734992  0.64000478  0.16385051    -0.02300
H862        H  0.81711818  0.71375357  0.15723214     0.05100
C863        C  0.79535422  0.64586681  0.17698921     0.20600
H864        H  0.65114687  0.61902098  0.16572791     0.10300
C865        C  0.81119565  0.66521091  0.19110422    -0.15700
C866        C  0.83547378  0.65103573  0.20001593     0.03300
C867        C  0.84406392  0.61711164  0.19478439    -0.11000
C868        C  0.83077475  0.59991399  0.18027709    -0.01000
C869        C  0.80629347  0.61395224  0.17138423    -0.06200
H870        H  0.80331804  0.69023006  0.19538349     0.06300
H871        H  0.83754724  0.57397790  0.17614268     0.09700
Br872      Br  0.69150260  0.57707454  0.18422814    -0.05900
Br873      Br  0.77788082  0.75510692  0.13819194    -0.02800
Br874      Br  0.85652282  0.67890446  0.21920645     0.00000
Br875      Br  0.78604048  0.58692500  0.15204766    -0.04300
C876        C  0.83178645  0.52919532  0.23982308    -0.11700
C877        C  0.78386503  0.50232892  0.23997232     0.03700
C878        C  0.76124360  0.48010308  0.25311242    -0.12300
C879        C  0.78531372  0.48401752  0.26625780     0.18600
C880        C  0.83296813  0.51063128  0.26616615    -0.09300
C881        C  0.85582618  0.53274048  0.25300678    -0.02300
H882        H  0.72458777  0.45912257  0.25304129     0.05100
C883        C  0.75968435  0.45817840  0.27965442     0.20600
H884        H  0.89250841  0.55323207  0.25313184     0.10300
C885        C  0.74620446  0.41191356  0.28082038    -0.15700
C886        C  0.71722312  0.38467498  0.29229661     0.03300
C887        C  0.70039017  0.40363416  0.30279967    -0.11000
C888        C  0.71534668  0.45052080  0.30184661    -0.01000
C889        C  0.74505194  0.47778694  0.29050831    -0.06200
H890        H  0.75727369  0.39658326  0.27246991     0.06300
H891        H  0.70333026  0.46594508  0.30983261     0.09700
Br892      Br  0.86800074  0.51748873  0.28373761    -0.05900
Br893      Br  0.74728374  0.49175059  0.22243448    -0.02800
Br894      Br  0.69921145  0.32120088  0.29205179     0.00000
Br895      Br  0.76384375  0.54135075  0.28997722    -0.04300
C896        C  0.48016622  0.92460394  0.20094320    -0.11700
C897        C  0.49409877  0.89702441  0.19354896     0.03700
C898        C  0.46159988  0.85366555  0.18844576    -0.12300
C899        C  0.41509539  0.83700957  0.19055556     0.18600
C900        C  0.40139374  0.86389655  0.19848724    -0.09300
C901        C  0.43378077  0.90716017  0.20355364    -0.02300
H902        H  0.47269008  0.83254224  0.18297550     0.05100
C903        C  0.38150122  0.79059164  0.18527096     0.20600
H904        H  0.42249393  0.92769071  0.20931562     0.10300
C905        C  0.35338778  0.75816329  0.19582326    -0.15700
C906        C  0.32014659  0.71458312  0.19147507     0.03300
C907        C  0.31509799  0.70194452  0.17630018    -0.11000
C908        C  0.34397132  0.73380644  0.16567910    -0.01000
C909        C  0.37701980  0.77800146  0.17005192    -0.06200
H910        H  0.35734269  0.76687219  0.20757903     0.06300
H911        H  0.34086070  0.72422548  0.15402201     0.09700
Br912      Br  0.33888481  0.84394677  0.20247674    -0.05900
Br913      Br  0.55680230  0.91504094  0.19106713    -0.02800
Br914      Br  0.28439896  0.67295855  0.20696225     0.00000
Br915      Br  0.41432935  0.82004822  0.15482990    -0.04300
C916        C  0.52893254  0.04790911  0.23757237    -0.11700
C917        C  0.52088555  0.08458587  0.23835398     0.03700
C918        C  0.52126311  0.10361070  0.25219616    -0.12300
C919        C  0.52911901  0.08616690  0.26534005     0.18600
C920        C  0.53427311  0.04767894  0.26468308    -0.09300
C921        C  0.53417978  0.02876041  0.25080232    -0.02300
H922        H  0.51636050  0.13271424  0.25269856     0.05100
C923        C  0.53466923  0.11065881  0.27942460     0.20600
H924        H  0.53977166  0.00010026  0.25029684     0.10300
C925        C  0.49629669  0.10233387  0.28755596    -0.15700
C926        C  0.50015397  0.12902536  0.29996782     0.03300
C927        C  0.54345598  0.16535232  0.30431270    -0.11000
C928        C  0.58197305  0.17169012  0.29646931    -0.01000
C929        C  0.57780326  0.14494381  0.28410227    -0.06200
H930        H  0.46305714  0.07564941  0.28398571     0.06300
H931        H  0.61551911  0.19900602  0.29946548     0.09700
Br932      Br  0.54277582  0.02107673  0.28242549    -0.05900
Br933      Br  0.50779964  0.10873515  0.22088624    -0.02800
Br934      Br  0.44447610  0.11355797  0.31005237     0.00000
Br935      Br  0.63172616  0.15837467  0.27331749    -0.04300
C936        C  0.18069661  0.51200373  0.16771578    -0.11700
C937        C  0.15946828  0.49686339  0.15372314     0.03700
C938        C  0.12681749  0.45102884  0.15169378    -0.12300
C939        C  0.11520332  0.41959575  0.16340511     0.18600
C940        C  0.13825279  0.43402750  0.17711728    -0.09300
C941        C  0.17061924  0.48006932  0.17921925    -0.02300
H942        H  0.10933713  0.44005117  0.14106771     0.05100
C943        C  0.07460983  0.37408986  0.16163794     0.20600
H944        H  0.18784351  0.49096388  0.18986422     0.10300
C945        C  0.07857700  0.33651599  0.15736476    -0.15700
C946        C  0.03981150  0.29505325  0.15355192     0.03300
C947        C  0.99668341  0.29126233  0.15401765    -0.11000
C948        C  0.99286101  0.32794554  0.15930567    -0.01000
C949        C  0.03133042  0.36918885  0.16295215    -0.06200
H950        H  0.11181531  0.33990110  0.15654710     0.06300
H951        H  0.95997753  0.32552644  0.15972349     0.09700
Br952      Br  0.12553812  0.39226544  0.19330841    -0.05900
Br953      Br  0.17436308  0.53744567  0.13701688    -0.02800
Br954      Br  0.04716830  0.24458966  0.14802656     0.00000
Br955      Br  0.02336328  0.41908072  0.16870985    -0.04300
C956        C  0.61782434  0.07296515  0.19170353    -0.11700
C957        C  0.64260031  0.12128622  0.19236955     0.03700
C958        C  0.68394533  0.14578550  0.18469747    -0.12300
C959        C  0.70059311  0.12318057  0.17599660     0.18600
C960        C  0.67490622  0.07552965  0.17467586    -0.09300
C961        C  0.63415725  0.05100708  0.18244548    -0.02300
H962        H  0.70324434  0.18263512  0.18552603     0.05100
C963        C  0.74580069  0.14890082  0.16893084     0.20600
H964        H  0.61597692  0.01421859  0.18155375     0.10300
C965        C  0.78435762  0.16059959  0.17758631    -0.15700
C966        C  0.82723910  0.17889731  0.17098303     0.03300
C967        C  0.83204780  0.18582272  0.15531261    -0.11000
C968        C  0.79329863  0.17535456  0.14679012    -0.01000
C969        C  0.75057195  0.15731001  0.15347303    -0.06200
H970        H  0.78076620  0.15376915  0.18949008     0.06300
H971        H  0.79616053  0.18131682  0.13486014     0.09700
Br972      Br  0.69518510  0.04210122  0.16289427    -0.05900
Br973      Br  0.62143041  0.15636998  0.20276755    -0.02800
Br974      Br  0.87655242  0.18984691  0.18400296     0.00000
Br975      Br  0.69938287  0.14398425  0.14110888    -0.04300
C976        C  0.92190181  0.19485669  0.11051483    -0.11700
C977        C  0.88506184  0.17697678  0.10032669     0.03700
C978        C  0.88856332  0.15919168  0.08661335    -0.12300
C979        C  0.92848972  0.15974549  0.08263120     0.18600
C980        C  0.96659642  0.18159513  0.09200513    -0.09300
C981        C  0.96308895  0.19870235  0.10581150    -0.02300
H982        H  0.85926892  0.14292772  0.07931198     0.05100
C983        C  0.92678660  0.12949302  0.07052648     0.20600
H984        H  0.99234423  0.21332923  0.11313932     0.10300
C985        C  0.93379216  0.14379858  0.05556941    -0.15700
C986        C  0.93117022  0.11427067  0.04411277     0.03300
C987        C  0.92102108  0.06929632  0.04766927    -0.11000
C988        C  0.91435734  0.05585228  0.06279510    -0.01000
C989        C  0.91707017  0.08523045  0.07406560    -0.06200
H990        H  0.94130778  0.17798764  0.05281384     0.06300
H991        H  0.90648265  0.02189086  0.06602750     0.09700
Br992      Br  0.02312550  0.18590509  0.08677545    -0.05900
Br993      Br  0.82939250  0.17636574  0.10402736    -0.02800
Br994      Br  0.94205367  0.13817704  0.02411654     0.00000
Br995      Br  0.90627597  0.06291169  0.09426356    -0.04300
C996        C  0.27611624  0.34132088  0.19538850    -0.11700
C997        C  0.23676621  0.34055022  0.18998643     0.03700
C998        C  0.24030765  0.37946722  0.18321954    -0.12300
C999        C  0.28252785  0.41949964  0.18174357     0.18600
C1000       C  0.32181162  0.41978228  0.18668937    -0.09300
C1001       C  0.31843674  0.38103058  0.19347902    -0.02300
H1002       H  0.20973134  0.37927688  0.17979831     0.05100
C1003       C  0.28379738  0.46234654  0.17760301     0.20600
H1004       H  0.34898475  0.38208648  0.19742826     0.10300
C1005       C  0.28959335  0.49268896  0.18908119    -0.15700
C1006       C  0.28577215  0.53101054  0.18632287     0.03300
C1007       C  0.27542339  0.53951822  0.17184748    -0.11000
C1008       C  0.27107617  0.50991208  0.16017779    -0.01000
C1009       C  0.27575430  0.47176636  0.16294662    -0.06200
H1010       H  0.29545826  0.48552736  0.20041253     0.06300
H1011       H  0.26230294  0.51543680  0.14904994     0.09700
Br1012     Br  0.38063091  0.47275685  0.18464007    -0.05900
Br1013     Br  0.17684796  0.28942130  0.19302000    -0.02800
Br1014     Br  0.29032471  0.56778916  0.20314547     0.00000
Br1015     Br  0.27091359  0.43344402  0.14654201    -0.04300
C1016       C  0.31878940  0.27900350  0.23847790    -0.11700
C1017       C  0.32836167  0.24593842  0.24444894     0.03700
C1018       C  0.35108245  0.25387133  0.25810282    -0.12300
C1019       C  0.36496167  0.29412287  0.26610705     0.18600
C1020       C  0.35537257  0.32690036  0.26035722    -0.09300
C1021       C  0.33256641  0.31925117  0.24668890    -0.02300
H1022       H  0.35923705  0.22891109  0.26233167     0.05100
C1023       C  0.39346101  0.30279587  0.27956374     0.20600
H1024       H  0.32531437  0.34490042  0.24254592     0.10300
C1025       C  0.43973273  0.33545313  0.27871219    -0.15700
C1026       C  0.46972059  0.33976627  0.29011327     0.03300
C1027       C  0.45342056  0.31072647  0.30272531    -0.11000
C1028       C  0.40656189  0.27946167  0.30385801    -0.01000
C1029       C  0.37665445  0.27546072  0.29244717    -0.06200
H1030       H  0.45299597  0.35622037  0.26874513     0.06300
H1031       H  0.39326095  0.25717699  0.31349116     0.09700
Br1032     Br  0.37198876  0.38208004  0.27099881    -0.05900
Br1033     Br  0.31476435  0.19033793  0.23447801    -0.02800
Br1034     Br  0.53294311  0.38247596  0.28680018     0.00000
Br1035     Br  0.31330097  0.23185182  0.29480088    -0.04300
C1036       C  0.22071889  0.67552934  0.17087068    -0.11700
C1037       C  0.22134172  0.69520100  0.15694174     0.03700
C1038       C  0.20610373  0.72630415  0.15574230    -0.12300
C1039       C  0.19004291  0.73852159  0.16827366     0.18600
C1040       C  0.18991436  0.71940641  0.18228989    -0.09300
C1041       C  0.20510382  0.68804574  0.18349293    -0.02300
H1042       H  0.20573359  0.74025999  0.14487763     0.05100
C1043       C  0.16938609  0.76739285  0.16592701     0.20600
H1044       H  0.20372916  0.67264616  0.19421661     0.10300
C1045       C  0.12822128  0.74872620  0.15812425    -0.15700
C1046       C  0.10927666  0.77542958  0.15416878     0.03300
C1047       C  0.13165573  0.82209545  0.15807504    -0.11000
C1048       C  0.17220986  0.84040796  0.16632159    -0.01000
C1049       C  0.19132900  0.81362777  0.17011882    -0.06200
H1050       H  0.11101080  0.71313577  0.15489244     0.06300
H1051       H  0.19005729  0.87615533  0.16934752     0.09700
Br1052     Br  0.16723778  0.73331626  0.19986742    -0.05900
Br1053     Br  0.24027234  0.67855793  0.13904490    -0.02800
Br1054     Br  0.05207294  0.74535884  0.14387650     0.00000
Br1055     Br  0.24869615  0.84249220  0.18015291    -0.04300
C1056       C  0.11486974  0.95641819  0.16694117    -0.11700
C1057       C  0.09800829  0.98610934  0.16358379     0.03700
C1058       C  0.11439533  0.02708791  0.17136646    -0.12300
C1059       C  0.14726815  0.03962180  0.18252627     0.18600
C1060       C  0.16081277  0.00851869  0.18693701    -0.09300
C1061       C  0.14476565  0.96754117  0.17916455    -0.02300
H1062       H  0.10278308  0.05038626  0.16826889     0.05100
C1063       C  0.17001861  0.08678423  0.18832893     0.20600
H1064       H  0.15756166  0.94533555  0.18236259     0.10300
C1065       C  0.16417838  0.09492500  0.20327748    -0.15700
C1066       C  0.18698291  0.13922781  0.20906013     0.03300
C1067       C  0.21611050  0.17621352  0.19978976    -0.11000
C1068       C  0.22057886  0.16817129  0.18470963    -0.01000
C1069       C  0.19799576  0.12392713  0.17895899    -0.06200
H1070       H  0.14194901  0.06670042  0.21046550     0.06300
H1071       H  0.24289353  0.19624257  0.17747994     0.09700
Br1072     Br  0.20356235  0.02170160  0.20280213    -0.05900
Br1073     Br  0.05331036  0.97492539  0.14861493    -0.02800
Br1074     Br  0.17530969  0.14752848  0.22944469     0.00000
Br1075     Br  0.20831452  0.11580205  0.15840041    -0.04300
C1076       C  0.06222782  0.87089799  0.11966909    -0.11700
C1077       C  0.02127245  0.87041221  0.11712807     0.03700
C1078       C  0.00694210  0.87048945  0.10253991    -0.12300
C1079       C  0.03188178  0.86925225  0.09029836     0.18600
C1080       C  0.07148341  0.86709002  0.09281234    -0.09300
C1081       C  0.08640977  0.86799867  0.10744727    -0.02300
H1082       H  0.97627598  0.87190752  0.10073092     0.05100
C1083       C  0.01765707  0.87415025  0.07516058     0.20600
H1084       H  0.11754204  0.86749077  0.10927486     0.10300
C1085       C  0.04620594  0.91369109  0.06692467    -0.15700
C1086       C  0.03062432  0.92429921  0.05394674     0.03300
C1087       C  0.98599493  0.89496107  0.04908596    -0.11000
C1088       C  0.95820397  0.85438033  0.05684952    -0.01000
C1089       C  0.97366979  0.84371479  0.06980642    -0.06200
H1090       H  0.07967838  0.93782484  0.07112607     0.06300
H1091       H  0.92361686  0.83191003  0.05317599     0.09700
Br1092     Br  0.10587676  0.86253430  0.07665737    -0.05900
Br1093     Br  0.98180094  0.86611308  0.13304892    -0.02800
Br1094     Br  0.06912421  0.98179912  0.04437462     0.00000
Br1095     Br  0.93260236  0.78841818  0.08013202    -0.04300
loop_ 
_geom_bond_atom_site_label_1 
_geom_bond_atom_site_label_2 
_geom_bond_distance 
_geom_bond_site_symmetry_2 
_ccdc_geom_bond_type 
C1            N2   1.357       .  A
C1            N6   1.360       .  A
C1         C1047   1.483       .  S
N2            C3   1.355       .  A
C3            N4   1.358       .  A
C3         C1076   1.472       .  S
N4            C5   1.359       .  A
C5            N6   1.363       .  A
C5         C1056   1.496       .  S
C7            N8   1.359       .  A
C7           N12   1.363       .  A
C7          C996   1.481       .  S
N8            C9   1.357       .  A
C9           N10   1.354       .  A
C9         C1067   1.474       .  S
N10          C11   1.355       .  A
C11          N12   1.363       .  A
C11        C1016   1.492       .  S
C13          N14   1.357       .  A
C13          N18   1.356       .  A
C13         C947   1.473       .  S
N14          C15   1.357       .  A
C15          N16   1.363       .  A
C15         C967   1.488       .  S
N16          C17   1.363       .  A
C17          N18   1.359       .  A
C17         C976   1.491       .  S
C19          N20   1.358   1_565  A
C19          N24   1.358       .  A
C19         C896   1.479       .  S
N20          C21   1.360       .  A
C21          N22   1.358       .  A
C21         C956   1.490       .  S
N22          C23   1.359       .  A
C23          N24   1.356   1_545  A
C23         C916   1.468       .  S
C25          N26   1.357       .  A
C25          N30   1.363       .  A
C25         C836   1.475       .  S
N26          C27   1.353       .  A
C27          N28   1.356       .  A
C27         C867   1.467       .  S
N28          C29   1.357       .  A
C29          N30   1.362       .  A
C29         C876   1.484       .  S
C31          N32   1.358       .  A
C31          N36   1.355       .  A
C31         C796   1.469       .  S
N32          C33   1.360       .  A
C33          N34   1.358       .  A
C33         C856   1.475       .  S
N34          C35   1.357       .  A
C35          N36   1.354       .  A
C35         C827   1.482       .  S
C37         C907   1.488       .  S
C37          C38   1.410       .  A
C37          C42   1.416       .  A
C38        C1036   1.492       .  S
C38          C39   1.414       .  A
C39         C847   1.481       .  S
C39          C40   1.414       .  A
C40         C936   1.487       .  S
C40          C41   1.412       .  A
C41        C1007   1.491       .  S
C41          C42   1.416       .  A
C42         C807   1.482       .  S
O43          C59   1.271       .  A
O43         Zn49   2.002       .  S
C44         C736   1.485       .  S
C44          O60   1.272       .  A
C44          O57   1.278       .  A
O45          C58   1.275       .  A
O45         Cd52   2.085       .  S
O46          C64   1.278       .  A
O46         Cd55   2.090       .  S
O47          C61   1.272       .  A
O47         Cd51   2.055       .  S
O48          C59   1.273       .  A
O48         Cd51   2.073       .  S
Zn49         O60   1.992       .  S
Zn49         O62   1.984       .  S
Zn49         O54   1.916       .  S
O50          C61   1.277       .  A
O50         Cd55   2.072       .  S
Cd51         O53   2.059       .  S
Cd51         O54   2.001       .  S
Cd52         O56   2.081       .  S
Cd52         O65   2.084       .  S
Cd52         O54   2.005       .  S
O53          C63   1.274       .  A
O54         Cd55   2.010       .  S
Cd55         O57   2.102       .  S
O56          C63   1.276       .  A
C58         C756   1.467       .  S
C58          O62   1.271       .  A
C59         C787   1.478       .  S
C61         C927   1.487       .  S
C63        C1027   1.483       .  S
C64         C887   1.490       .  S
C64          O65   1.278       .  A
C66          N67   1.361       .  A
C66          N71   1.365       .  A
C66         C676   1.495       .  S
N67          C68   1.356       .  A
C68          N69   1.355       .  A
C68         C696   1.473       .  S
N69          C70   1.359       .  A
C70          N71   1.364       .  A
C70         C716   1.491       .  S
C72          N73   1.356       .  A
C72          N77   1.351       .  A
C72         C656   1.464       .  S
N73          C74   1.361       .  A
C74          N75   1.362       .  A
C74         C707   1.499   1_545  S
N75          C76   1.363       .  A
C76          N77   1.352       .  A
C76         C776   1.487       .  S
C78          N79   1.361       .  A
C78          N83   1.356       .  A
C78         C607   1.484       .  S
N79          C80   1.360       .  A
C80          N81   1.357       .  A
C80         C647   1.484       .  S
N81          C82   1.353       .  A
C82          N83   1.355       .  A
C82         C616   1.475       .  S
C84          N85   1.359       .  A
C84          N89   1.354       .  A
C84         C767   1.480       .  S
N85          C86   1.358       .  A
C86          N87   1.354       .  A
C86         C627   1.468       .  S
N87          C88   1.354       .  A
C88          N89   1.355       .  A
C88         C587   1.464       .  S
C90          N91   1.359   1_655  A
C90          N95   1.360       .  A
C90         C516   1.484       .  S
N91          C92   1.359       .  A
C92          N93   1.358   1_455  A
C92         C556   1.482       .  S
N93          C94   1.358       .  A
C94          N95   1.359       .  A
C94         C547   1.484       .  S
C96          N97   1.364       .  A
C96         N101   1.358       .  A
C96         C496   1.484       .  S
N97          C98   1.365       .  A
C98          N99   1.357       .  A
C98         C747   1.499       .  S
N99         C100   1.355       .  A
C100        N101   1.354       .  A
C100        C536   1.478       .  S
C102        C527   1.491       .  S
C102        C103   1.411       .  A
C102        C107   1.406       .  A
C103        C576   1.466       .  S
C103        C104   1.414       .  A
C104        C687   1.495       .  S
C104        C105   1.409       .  A
C105        C507   1.482   1_565  S
C105        C106   1.410       .  A
C106        C596   1.477   1_565  S
C106        C107   1.410       .  A
C107        C667   1.480   1_655  S
C108        N109   1.354       .  A
C108        N113   1.356       .  A
C108        C436   1.469       .  S
N109        C110   1.356       .  A
C110        N111   1.360       .  A
C110        C456   1.476       .  S
N111        C112   1.363       .  A
C112        N113   1.358       .  A
C112        C487   1.488       .  S
C114        N115   1.358       .  A
C114        N119   1.357   1_545  A
C114        C396   1.471       .  S
N115        C116   1.355   1_545  A
C116        N117   1.358       .  A
C116        C416   1.463       .  S
N117        C118   1.356       .  A
C118        N119   1.356       .  A
C118        C467   1.472       .  S
C120        N121   1.359       .  A
C120        N125   1.358       .  A
C120        C347   1.481       .  S
N121        C122   1.359       .  A
C122        N123   1.362       .  A
C122        C376   1.495       .  S
N123        C124   1.358       .  A
C124        N125   1.358       .  A
C124        C356   1.481       .  S
C126        N127   1.355       .  A
C126        N131   1.358       .  A
C126        C316   1.473       .  S
N127        C128   1.355       .  A
C128        N129   1.359       .  A
C128        C296   1.474       .  S
N129        C130   1.360       .  A
C130        N131   1.358       .  A
C130        C367   1.489       .  S
C132        N133   1.356       .  A
C132        N137   1.359       .  A
C132        C236   1.478       .  S
N133        C134   1.354       .  A
C134        N135   1.359       .  A
C134        C287   1.485       .  S
N135        C136   1.358       .  A
C136        N137   1.360       .  A
C136        C267   1.479       .  S
C138        N139   1.360       .  A
C138        N143   1.358       .  A
C138        C196   1.476       .  S
N139        C140   1.360       .  A
C140        N141   1.358       .  A
C140        C216   1.482       .  S
N141        C142   1.359       .  A
C142        N143   1.357       .  A
C142        C256   1.478   1_655  S
C144        C447   1.485       .  S
C144        C145   1.412       .  A
C144        C149   1.410       .  A
C145        C307   1.481       .  S
C145        C146   1.412       .  A
C146        C207   1.487       .  S
C146        C147   1.413       .  A
C147        C407   1.481       .  S
C147        C148   1.412       .  A
C148        C336   1.486       .  S
C148        C149   1.408       .  A
C149        C247   1.482       .  S
O150        C166   1.270       .  A
O150       Zn156   1.972       .  S
C151       C1087   1.459       .  S
C151        O167   1.269       .  A
C151        O164   1.273       .  A
O152        C165   1.274       .  A
O152       Cd159   2.086       .  S
O153        C171   1.274   1_565  A
O153       Cd162   2.061   1_456  S
O154        C168   1.272       .  A
O154       Cd158   2.058   1_556  S
O155        C166   1.274       .  A
O155       Cd158   2.091       .  S
Zn156       O167   1.980       .  S
Zn156       O169   1.994       .  S
Zn156       O161   1.898       .  S
O157        C168   1.275       .  A
O157       Cd162   2.063   1_556  S
Cd158       O160   2.056   1_554  S
Cd158       O161   2.004       .  S
Cd159       O163   2.060   1_544  S
Cd159       O172   2.059   1_554  S
Cd159       O161   1.997   1_545  S
O160        C170   1.273       .  A
O161       Cd162   2.000       .  S
Cd162       O164   2.066       .  S
O163        C170   1.275       .  A
C165        C987   1.494       .  S
C165        O169   1.273   1_545  A
C166        C816   1.483       .  S
C168        C327   1.487       .  S
C170        C427   1.476       .  S
C171        C276   1.476       .  S
C171        O172   1.273   1_455  A
O173        C189   1.271       .  A
O173       Zn179   1.979       .  S
C174        C476   1.471       .  S
C174        O190   1.268       .  A
C174        O187   1.277       .  A
O175        C188   1.276       .  A
O175       Cd182   2.091       .  S
O176        C194   1.279       .  A
O176       Cd185   2.093       .  S
O177        C191   1.275       .  A
O177       Cd181   2.058       .  S
O178        C189   1.274       .  A
O178       Cd181   2.085       .  S
Zn179       O190   1.973       .  S
Zn179       O192   1.984       .  S
Zn179       O184   1.904       .  S
O180        C191   1.275       .  A
O180       Cd185   2.070       .  S
Cd181       O183   2.076       .  S
Cd181       O184   2.002       .  S
Cd182       O186   2.064       .  S
Cd182       O195   2.068       .  S
Cd182       O184   1.997       .  S
O183        C193   1.276       .  A
O184       Cd185   2.008       .  S
Cd185       O187   2.102       .  S
O186        C193   1.275       .  A
C188        C387   1.472       .  S
C188        O192   1.270       .  A
C189        C227   1.481       .  S
C191        C636   1.478       .  S
C193        C567   1.481       .  S
C194        C727   1.499       .  S
C194        O195   1.273       .  A
C196        C197   1.410       .  A
C196        C201   1.404       .  A
C197        C198   1.400       .  A
C197       Br213   1.920       .  S
C198        C199   1.403       .  A
C198        H202   1.084       .  S
C199        C203   1.479       .  S
C199        C200   1.409       .  A
C200        C201   1.399       .  A
C200       Br212   1.921       .  S
C201        H204   1.084       .  S
C203        C205   1.401       .  A
C203        C209   1.409       .  A
C205        C206   1.397       .  A
C205        H210   1.084       .  S
C206        C207   1.409       .  A
C206       Br214   1.918       .  S
C207        C208   1.403       .  A
C208        C209   1.400       .  A
C208        H211   1.083       .  S
C209       Br215   1.918       .  S
C216        C217   1.414   1_655  A
C216        C221   1.405       .  A
C217        C218   1.400       .  A
C217       Br233   1.920       .  S
C218        C219   1.403       .  A
C218        H222   1.084       .  S
C219        C223   1.481       .  S
C219        C220   1.409       .  A
C220        C221   1.398   1_455  A
C220       Br232   1.920   1_455  S
C221        H224   1.083       .  S
C223        C225   1.407       .  A
C223        C229   1.407       .  A
C225        C226   1.405       .  A
C225        H230   1.083       .  S
C226        C227   1.413       .  A
C226       Br234   1.919       .  S
C227        C228   1.406       .  A
C228        C229   1.390       .  A
C228        H231   1.084       .  S
C229       Br235   1.922       .  S
C236        C237   1.412       .  A
C236        C241   1.405       .  A
C237        C238   1.401       .  A
C237       Br253   1.919       .  S
C238        C239   1.403       .  A
C238        H242   1.084       .  S
C239        C243   1.476       .  S
C239        C240   1.406       .  A
C240        C241   1.396       .  A
C240       Br252   1.920       .  S
C241        H244   1.084       .  S
C243        C245   1.401       .  A
C243        C249   1.409       .  A
C245        C246   1.396       .  A
C245        H250   1.084       .  S
C246        C247   1.409       .  A
C246       Br254   1.920       .  S
C247        C248   1.401       .  A
C248        C249   1.399       .  A
C248        H251   1.083       .  S
C249       Br255   1.916       .  S
C256        C257   1.414       .  A
C256        C261   1.403       .  A
C257        C258   1.402       .  A
C257       Br273   1.920   1_455  S
C258        C259   1.402       .  A
C258        H262   1.083       .  S
C259        C263   1.476       .  S
C259        C260   1.406       .  A
C260        C261   1.396       .  A
C260       Br272   1.919       .  S
C261        H264   1.083       .  S
C263        C265   1.400       .  A
C263        C269   1.406       .  A
C265        C266   1.398       .  A
C265        H270   1.084       .  S
C266        C267   1.414       .  A
C266       Br274   1.920       .  S
C267        C268   1.405       .  A
C268        C269   1.400       .  A
C268        H271   1.083       .  S
C269       Br275   1.918       .  S
C276        C277   1.413       .  A
C276        C281   1.406       .  A
C277        C278   1.398       .  A
C277       Br293   1.921       .  S
C278        C279   1.401       .  A
C278        H282   1.084       .  S
C279        C283   1.469       .  S
C279        C280   1.403       .  A
C280        C281   1.395       .  A
C280       Br292   1.918       .  S
C281        H284   1.084   1_545  S
C283        C285   1.397       .  A
C283        C289   1.404       .  A
C285        C286   1.399       .  A
C285        H290   1.084       .  S
C286        C287   1.421       .  A
C286       Br294   1.922       .  S
C287        C288   1.407       .  A
C288        C289   1.395       .  A
C288        H291   1.082       .  S
C289       Br295   1.920       .  S
C296        C297   1.414       .  A
C296        C301   1.405       .  A
C297        C298   1.398       .  A
C297       Br313   1.922       .  S
C298        C299   1.400       .  A
C298        H302   1.084       .  S
C299        C303   1.469       .  S
C299        C300   1.404       .  A
C300        C301   1.397       .  A
C300       Br312   1.919       .  S
C301        H304   1.084       .  S
C303        C305   1.402       .  A
C303        C309   1.403       .  A
C305        C306   1.400       .  A
C305        H310   1.083       .  S
C306        C307   1.408       .  A
C306       Br314   1.913       .  S
C307        C308   1.403       .  A
C308        C309   1.392       .  A
C308        H311   1.084       .  S
C309       Br315   1.918       .  S
C316        C317   1.409       .  A
C316        C321   1.407       .  A
C317        C318   1.395       .  A
C317       Br333   1.920       .  S
C318        C319   1.401       .  A
C318        H322   1.084       .  S
C319        C323   1.470       .  S
C319        C320   1.404       .  A
C320        C321   1.398       .  A
C320       Br332   1.918       .  S
C321        H324   1.083       .  S
C323        C325   1.398       .  A
C323        C329   1.402       .  A
C325        C326   1.398       .  A
C325        H330   1.084       .  S
C326        C327   1.421       .  A
C326       Br334   1.924       .  S
C327        C328   1.410       .  A
C328        C329   1.395       .  A
C328        H331   1.083       .  S
C329       Br335   1.920       .  S
C336        C337   1.409       .  A
C336        C341   1.404       .  A
C337        C338   1.402       .  A
C337       Br353   1.913       .  S
C338        C339   1.404       .  A
C338        H342   1.083       .  S
C339        C343   1.478       .  S
C339        C340   1.405       .  A
C340        C341   1.396       .  A
C340       Br352   1.917       .  S
C341        H344   1.084       .  S
C343        C345   1.401       .  A
C343        C349   1.406       .  A
C345        C346   1.401       .  A
C345        H350   1.084       .  S
C346        C347   1.414   1_545  A
C346       Br354   1.920       .  S
C347        C348   1.405       .  A
C348        C349   1.400   1_565  A
C348        H351   1.083       .  S
C349       Br355   1.917       .  S
C356        C357   1.413       .  A
C356        C361   1.406       .  A
C357        C358   1.401       .  A
C357       Br373   1.920       .  S
C358        C359   1.402       .  A
C358        H362   1.084       .  S
C359        C363   1.478       .  S
C359        C360   1.406       .  A
C360        C361   1.399       .  A
C360       Br372   1.918       .  S
C361        H364   1.083       .  S
C363        C365   1.400       .  A
C363        C369   1.404       .  A
C365        C366   1.400       .  A
C365        H370   1.084       .  S
C366        C367   1.419   1_455  A
C366       Br374   1.922       .  S
C367        C368   1.409       .  A
C368        C369   1.400   1_655  A
C368        H371   1.083       .  S
C369       Br375   1.917       .  S
C376        C377   1.423       .  A
C376        C381   1.410       .  A
C377        C378   1.402       .  A
C377       Br393   1.922       .  S
C378        C379   1.398       .  A
C378        H382   1.084       .  S
C379        C383   1.476       .  S
C379        C380   1.404       .  A
C380        C381   1.397       .  A
C380       Br392   1.920       .  S
C381        H384   1.083       .  S
C383        C385   1.400       .  A
C383        C389   1.409       .  A
C385        C386   1.397       .  A
C385        H390   1.084       .  S
C386        C387   1.412       .  A
C386       Br394   1.922       .  S
C387        C388   1.402       .  A
C388        C389   1.401       .  A
C388        H391   1.083       .  S
C389       Br395   1.917       .  S
C396        C397   1.410       .  A
C396        C401   1.404       .  A
C397        C398   1.396       .  A
C397       Br413   1.920       .  S
C398        C399   1.402       .  A
C398        H402   1.084       .  S
C399        C403   1.473       .  S
C399        C400   1.407       .  A
C400        C401   1.395       .  A
C400       Br412   1.918       .  S
C401        H404   1.083   1_545  S
C403        C405   1.403       .  A
C403        C409   1.406       .  A
C405        C406   1.399       .  A
C405        H410   1.083       .  S
C406        C407   1.409       .  A
C406       Br414   1.912       .  S
C407        C408   1.402       .  A
C408        C409   1.391       .  A
C408        H411   1.084       .  S
C409       Br415   1.920       .  S
C416        C417   1.405       .  A
C416        C421   1.402   1_565  A
C417        C418   1.393       .  A
C417       Br433   1.919       .  S
C418        C419   1.401       .  A
C418        H422   1.084       .  S
C419        C423   1.469       .  S
C419        C420   1.408   1_565  A
C420        C421   1.399       .  A
C420       Br432   1.918       .  S
C421        H424   1.084       .  S
C423        C425   1.400       .  A
C423        C429   1.404   1_565  A
C425        C426   1.394       .  A
C425        H430   1.084       .  S
C426        C427   1.415       .  A
C426       Br434   1.924       .  S
C427        C428   1.407   1_565  A
C428        C429   1.397       .  A
C428        H431   1.083       .  S
C429       Br435   1.917       .  S
C436        C437   1.409       .  A
C436        C441   1.403       .  A
C437        C438   1.396       .  A
C437       Br453   1.920       .  S
C438        C439   1.401       .  A
C438        H442   1.084       .  S
C439        C443   1.476       .  S
C439        C440   1.409       .  A
C440        C441   1.399       .  A
C440       Br452   1.920       .  S
C441        H444   1.084       .  S
C443        C445   1.403       .  A
C443        C449   1.407       .  A
C445        C446   1.400       .  A
C445        H450   1.083       .  S
C446        C447   1.409       .  A
C446       Br454   1.912       .  S
C447        C448   1.403       .  A
C448        C449   1.393       .  A
C448        H451   1.084       .  S
C449       Br455   1.920       .  S
C456        C457   1.412       .  A
C456        C461   1.405       .  A
C457        C458   1.400       .  A
C457       Br473   1.919       .  S
C458        C459   1.402       .  A
C458        H462   1.084       .  S
C459        C463   1.473       .  S
C459        C460   1.404       .  A
C460        C461   1.397       .  A
C460       Br472   1.918       .  S
C461        H464   1.084       .  S
C463        C465   1.400       .  A
C463        C469   1.407       .  A
C465        C466   1.397       .  A
C465        H470   1.084       .  S
C466        C467   1.410       .  A
C466       Br474   1.919       .  S
C467        C468   1.404       .  A
C468        C469   1.399       .  A
C468        H471   1.084       .  S
C469       Br475   1.918       .  S
C476        C477   1.411       .  A
C476        C481   1.402       .  A
C477        C478   1.398       .  A
C477       Br493   1.921       .  S
C478        C479   1.401       .  A
C478        H482   1.083       .  S
C479        C483   1.477       .  S
C479        C480   1.408       .  A
C480        C481   1.401       .  A
C480       Br492   1.917       .  S
C481        H484   1.083       .  S
C483        C485   1.399       .  A
C483        C489   1.406       .  A
C485        C486   1.401       .  A
C485        H490   1.084       .  S
C486        C487   1.420       .  A
C486       Br494   1.922       .  S
C487        C488   1.407       .  A
C488        C489   1.398       .  A
C488        H491   1.083       .  S
C489       Br495   1.920       .  S
C496        C497   1.414       .  A
C496        C501   1.407       .  A
C497        C498   1.403       .  A
C497       Br513   1.919       .  S
C498        C499   1.403       .  A
C498        H502   1.084       .  S
C499        C503   1.477       .  S
C499        C500   1.404       .  A
C500        C501   1.396       .  A
C500       Br512   1.921       .  S
C501        H504   1.082       .  S
C503        C505   1.399       .  A
C503        C509   1.410       .  A
C505        C506   1.396       .  A
C505        H510   1.084       .  S
C506        C507   1.410       .  A
C506       Br514   1.917       .  S
C507        C508   1.401       .  A
C508        C509   1.401       .  A
C508        H511   1.083       .  S
C509       Br515   1.916       .  S
C516        C517   1.414   1_655  A
C516        C521   1.405       .  A
C517        C518   1.402       .  A
C517       Br533   1.920       .  S
C518        C519   1.404   1_455  A
C518        H522   1.085       .  S
C519        C523   1.484       .  S
C519        C520   1.409       .  A
C520        C521   1.398       .  A
C520       Br532   1.919       .  S
C521        H524   1.085       .  S
C523        C525   1.404       .  A
C523        C529   1.409       .  A
C525        C526   1.401       .  A
C525        H530   1.090       .  S
C526        C527   1.409       .  A
C526       Br534   1.913       .  S
C527        C528   1.402       .  A
C528        C529   1.397       .  A
C528        H531   1.090       .  S
C529       Br535   1.919       .  S
C536        C537   1.414       .  A
C536        C541   1.405       .  A
C537        C538   1.399       .  A
C537       Br553   1.919       .  S
C538        C539   1.400       .  A
C538        H542   1.084       .  S
C539        C543   1.474       .  S
C539        C540   1.405       .  A
C540        C541   1.398       .  A
C540       Br552   1.918       .  S
C541        H544   1.084       .  S
C543        C545   1.401       .  A
C543        C549   1.404       .  A
C545        C546   1.400       .  A
C545        H550   1.084       .  S
C546        C547   1.415       .  A
C546       Br554   1.921       .  S
C547        C548   1.408       .  A
C548        C549   1.398       .  A
C548        H551   1.083       .  S
C549       Br555   1.918       .  S
C556        C557   1.415       .  A
C556        C561   1.406       .  A
C557        C558   1.401       .  A
C557       Br573   1.920   1_455  S
C558        C559   1.400       .  A
C558        H562   1.083       .  S
C559        C563   1.474       .  S
C559        C560   1.406       .  A
C560        C561   1.397       .  A
C560       Br572   1.920       .  S
C561        H564   1.083       .  S
C563        C565   1.402       .  A
C563        C569   1.404       .  A
C565        C566   1.401       .  A
C565        H570   1.083       .  S
C566        C567   1.412       .  A
C566       Br574   1.920       .  S
C567        C568   1.407       .  A
C568        C569   1.396       .  A
C568        H571   1.084       .  S
C569       Br575   1.919       .  S
C576        C577   1.405       .  A
C576        C581   1.398       .  A
C577        C578   1.396       .  A
C577       Br593   1.915       .  S
C578        C579   1.402       .  A
C578        H582   1.083       .  S
C579        C583   1.460       .  S
C579        C580   1.405       .  A
C580        C581   1.386       .  A
C580       Br592   1.921       .  S
C581        H584   1.084       .  S
C583        C585   1.399       .  A
C583        C589   1.404       .  A
C585        C586   1.392       .  A
C585        H590   1.084       .  S
C586        C587   1.410       .  A
C586       Br594   1.920       .  S
C587        C588   1.404       .  A
C588        C589   1.394       .  A
C588        H591   1.084       .  S
C589       Br595   1.920       .  S
C596        C597   1.408   1_655  A
C596        C601   1.400   1_655  A
C597        C598   1.392       .  A
C597       Br613   1.922   1_455  S
C598        C599   1.401       .  A
C598        H602   1.083       .  S
C599        C603   1.480       .  S
C599        C600   1.413       .  A
C600        C601   1.401       .  A
C600       Br612   1.918       .  S
C601        H604   1.083       .  S
C603        C605   1.400       .  A
C603        C609   1.409       .  A
C605        C606   1.398       .  A
C605        H610   1.084       .  S
C606        C607   1.418       .  A
C606       Br614   1.923       .  S
C607        C608   1.406       .  A
C608        C609   1.398       .  A
C608        H611   1.083       .  S
C609       Br615   1.921       .  S
C616        C617   1.415       .  A
C616        C621   1.405       .  A
C617        C618   1.397       .  A
C617       Br633   1.922       .  S
C618        C619   1.399       .  A
C618        H622   1.084       .  S
C619        C623   1.469       .  S
C619        C620   1.404       .  A
C620        C621   1.396       .  A
C620       Br632   1.919       .  S
C621        H624   1.083       .  S
C623        C625   1.400       .  A
C623        C629   1.405       .  A
C625        C626   1.395       .  A
C625        H630   1.084       .  S
C626        C627   1.409       .  A
C626       Br634   1.920       .  S
C627        C628   1.404       .  A
C628        C629   1.397       .  A
C628        H631   1.083       .  S
C629       Br635   1.918       .  S
C636        C637   1.414       .  A
C636        C641   1.405       .  A
C637        C638   1.401       .  A
C637       Br653   1.921       .  S
C638        C639   1.402       .  A
C638        H642   1.083       .  S
C639        C643   1.470       .  S
C639        C640   1.403       .  A
C640        C641   1.392       .  A
C640       Br652   1.919       .  S
C641        H644   1.083       .  S
C643        C645   1.399       .  A
C643        C649   1.404       .  A
C645        C646   1.402       .  A
C645        H650   1.084       .  S
C646        C647   1.418       .  A
C646       Br654   1.920       .  S
C647        C648   1.407       .  A
C648        C649   1.393       .  A
C648        H651   1.083       .  S
C649       Br655   1.922       .  S
C656        C657   1.409       .  A
C656        C661   1.400   1_545  A
C657        C658   1.399       .  A
C657       Br673   1.919       .  S
C658        C659   1.402       .  A
C658        H662   1.084       .  S
C659        C663   1.468   1_545  S
C659        C660   1.405   1_545  A
C660        C661   1.394       .  A
C660       Br672   1.920       .  S
C661        H664   1.084       .  S
C663        C665   1.399       .  A
C663        C669   1.405       .  A
C665        C666   1.395       .  A
C665        H670   1.082   1_565  S
C666        C667   1.409       .  A
C666       Br674   1.916       .  S
C667        C668   1.402       .  A
C668        C669   1.397       .  A
C668        H671   1.080       .  S
C669       Br675   1.916       .  S
C676        C677   1.418       .  A
C676        C681   1.410       .  A
C677        C678   1.405       .  A
C677       Br693   1.920       .  S
C678        C679   1.404       .  A
C678        H682   1.084       .  S
C679        C683   1.486       .  S
C679        C680   1.406       .  A
C680        C681   1.400       .  A
C680       Br692   1.921       .  S
C681        H684   1.083       .  S
C683        C685   1.405       .  A
C683        C689   1.407       .  A
C685        C686   1.404       .  A
C685        H690   1.083       .  S
C686        C687   1.411       .  A
C686       Br694   1.912       .  S
C687        C688   1.404       .  A
C688        C689   1.399       .  A
C688        H691   1.084       .  S
C689       Br695   1.918       .  S
C696        C697   1.409       .  A
C696        C701   1.403       .  A
C697        C698   1.401       .  A
C697       Br713   1.919       .  S
C698        C699   1.403       .  A
C698        H702   1.083       .  S
C699        C703   1.477       .  S
C699        C700   1.407       .  A
C700        C701   1.399       .  A
C700       Br712   1.918       .  S
C701        H704   1.084       .  S
C703        C705   1.398       .  A
C703        C709   1.403       .  A
C705        C706   1.402       .  A
C705        H710   1.084       .  S
C706        C707   1.423       .  A
C706       Br714   1.920   1_565  S
C707        C708   1.413       .  A
C708        C709   1.397       .  A
C708        H711   1.082       .  S
C709       Br715   1.920       .  S
C716        C717   1.415       .  A
C716        C721   1.408       .  A
C717        C718   1.403       .  A
C717       Br733   1.919       .  S
C718        C719   1.404       .  A
C718        H722   1.083       .  S
C719        C723   1.489       .  S
C719        C720   1.410       .  A
C720        C721   1.400       .  A
C720       Br732   1.921       .  S
C721        H724   1.083       .  S
C723        C725   1.401       .  A
C723        C729   1.408       .  A
C725        C726   1.400       .  A
C725        H730   1.084       .  S
C726        C727   1.423       .  A
C726       Br734   1.925       .  S
C727        C728   1.411       .  A
C728        C729   1.403       .  A
C728        H731   1.083       .  S
C729       Br735   1.919       .  S
C736        C737   1.412       .  A
C736        C741   1.408       .  A
C737        C738   1.405       .  A
C737       Br753   1.919       .  S
C738        C739   1.406       .  A
C738        H742   1.083       .  S
C739        C743   1.482       .  S
C739        C740   1.405       .  A
C740        C741   1.397       .  A
C740       Br752   1.920       .  S
C741        H744   1.084       .  S
C743        C745   1.397       .  A
C743        C749   1.406       .  A
C745        C746   1.398       .  A
C745        H750   1.084       .  S
C746        C747   1.424       .  A
C746       Br754   1.925       .  S
C747        C748   1.412       .  A
C748        C749   1.404       .  A
C748        H751   1.083       .  S
C749       Br755   1.918       .  S
C756        C757   1.409       .  A
C756        C761   1.402       .  A
C757        C758   1.396       .  A
C757       Br773   1.921       .  S
C758        C759   1.400       .  A
C758        H762   1.084       .  S
C759        C763   1.471       .  S
C759        C760   1.407       .  A
C760        C761   1.399       .  A
C760       Br772   1.918       .  S
C761        H764   1.084       .  S
C763        C765   1.398       .  A
C763        C769   1.406       .  A
C765        C766   1.399       .  A
C765        H770   1.083       .  S
C766        C767   1.418       .  A
C766       Br774   1.922       .  S
C767        C768   1.405       .  A
C768        C769   1.394       .  A
C768        H771   1.082       .  S
C769       Br775   1.920       .  S
C776        C777   1.423       .  A
C776        C781   1.405       .  A
C777        C778   1.400       .  A
C777       Br793   1.924       .  S
C778        C779   1.397       .  A
C778        H782   1.084       .  S
C779        C783   1.472       .  S
C779        C780   1.405       .  A
C780        C781   1.395       .  A
C780       Br792   1.920       .  S
C781        H784   1.082       .  S
C783        C785   1.400       .  A
C783        C789   1.405       .  A
C785        C786   1.397       .  A
C785        H790   1.084       .  S
C786        C787   1.413       .  A
C786       Br794   1.922       .  S
C787        C788   1.406       .  A
C788        C789   1.399       .  A
C788        H791   1.083       .  S
C789       Br795   1.917       .  S
C796        C797   1.412       .  A
C796        C801   1.402       .  A
C797        C798   1.396       .  A
C797       Br813   1.920       .  S
C798        C799   1.398       .  A
C798        H802   1.084       .  S
C799        C803   1.468       .  S
C799        C800   1.406       .  A
C800        C801   1.397       .  A
C800       Br812   1.914       .  S
C801        H804   1.084       .  S
C803        C805   1.400       .  A
C803        C809   1.403       .  A
C805        C806   1.394       .  A
C805        H810   1.084       .  S
C806        C807   1.409       .  A
C806       Br814   1.920       .  S
C807        C808   1.404       .  A
C808        C809   1.395       .  A
C808        H811   1.081       .  S
C809       Br815   1.915       .  S
C816        C817   1.415       .  A
C816        C821   1.406       .  A
C817        C818   1.405       .  A
C817       Br833   1.919       .  S
C818        C819   1.405       .  A
C818        H822   1.083       .  S
C819        C823   1.475       .  S
C819        C820   1.406       .  A
C820        C821   1.388       .  A
C820       Br832   1.924       .  S
C821        H824   1.084       .  S
C823        C825   1.401       .  A
C823        C829   1.406       .  A
C825        C826   1.398       .  A
C825        H830   1.084       .  S
C826        C827   1.414       .  A
C826       Br834   1.921       .  S
C827        C828   1.408       .  A
C828        C829   1.396       .  A
C828        H831   1.083       .  S
C829       Br835   1.920       .  S
C836        C837   1.413       .  A
C836        C841   1.404       .  A
C837        C838   1.396   1_655  A
C837       Br853   1.921   1_655  S
C838        C839   1.402       .  A
C838        H842   1.084       .  S
C839        C843   1.476       .  S
C839        C840   1.408   1_455  A
C840        C841   1.398       .  A
C840       Br852   1.918       .  S
C841        H844   1.083       .  S
C843        C845   1.398       .  A
C843        C849   1.410       .  A
C845        C846   1.392       .  A
C845        H850   1.084       .  S
C846        C847   1.410       .  A
C846       Br854   1.915       .  S
C847        C848   1.402       .  A
C848        C849   1.400       .  A
C848        H851   1.083       .  S
C849       Br855   1.917       .  S
C856        C857   1.414       .  A
C856        C861   1.403       .  A
C857        C858   1.400       .  A
C857       Br873   1.920       .  S
C858        C859   1.400       .  A
C858        H862   1.084       .  S
C859        C863   1.472       .  S
C859        C860   1.406       .  A
C860        C861   1.397       .  A
C860       Br872   1.920       .  S
C861        H864   1.084       .  S
C863        C865   1.401       .  A
C863        C869   1.407       .  A
C865        C866   1.397       .  A
C865        H870   1.083       .  S
C866        C867   1.406       .  A
C866       Br874   1.919       .  S
C867        C868   1.403       .  A
C868        C869   1.399       .  A
C868        H871   1.084       .  S
C869       Br875   1.918       .  S
C876        C877   1.415       .  A
C876        C881   1.406       .  A
C877        C878   1.400       .  A
C877       Br893   1.922       .  S
C878        C879   1.401       .  A
C878        H882   1.083       .  S
C879        C883   1.482       .  S
C879        C880   1.407       .  A
C880        C881   1.403       .  A
C880       Br892   1.916       .  S
C881        H884   1.083       .  S
C883        C885   1.401       .  A
C883        C889   1.406       .  A
C885        C886   1.402       .  A
C885        H890   1.084       .  S
C886        C887   1.417       .  A
C886       Br894   1.921       .  S
C887        C888   1.409       .  A
C888        C889   1.403       .  A
C888        H891   1.083       .  S
C889       Br895   1.918       .  S
C896        C897   1.413       .  A
C896        C901   1.402       .  A
C897        C898   1.401       .  A
C897       Br913   1.919       .  S
C898        C899   1.403       .  A
C898        H902   1.084       .  S
C899        C903   1.484       .  S
C899        C900   1.412       .  A
C900        C901   1.397       .  A
C900       Br912   1.919       .  S
C901        H904   1.084       .  S
C903        C905   1.399       .  A
C903        C909   1.414       .  A
C905        C906   1.392       .  A
C905        H910   1.083       .  S
C906        C907   1.409       .  A
C906       Br914   1.914       .  S
C907        C908   1.403       .  A
C908        C909   1.404       .  A
C908        H911   1.083       .  S
C909       Br915   1.918       .  S
C916        C917   1.407       .  A
C916        C921   1.404       .  A
C917        C918   1.396       .  A
C917       Br933   1.918       .  S
C918        C919   1.401       .  A
C918        H922   1.084       .  S
C919        C923   1.471       .  S
C919        C920   1.406       .  A
C920        C921   1.400       .  A
C920       Br932   1.918       .  S
C921        H924   1.084       .  S
C923        C925   1.398       .  A
C923        C929   1.403       .  A
C925        C926   1.399       .  A
C925        H930   1.083       .  S
C926        C927   1.421       .  A
C926       Br934   1.923       .  S
C927        C928   1.409       .  A
C928        C929   1.395       .  A
C928        H931   1.083       .  S
C929       Br935   1.919       .  S
C936        C937   1.408       .  A
C936        C941   1.405       .  A
C937        C938   1.396       .  A
C937       Br953   1.918       .  S
C938        C939   1.402       .  A
C938        H942   1.084       .  S
C939        C943   1.474       .  S
C939        C940   1.406       .  A
C940        C941   1.400       .  A
C940       Br952   1.916       .  S
C941        H944   1.082       .  S
C943        C945   1.404       .  A
C943        C949   1.406       .  A
C945        C946   1.404       .  A
C945        H950   1.084       .  S
C946        C947   1.412   1_455  A
C946       Br954   1.920       .  S
C947        C948   1.400       .  A
C948        C949   1.392   1_655  A
C948        H951   1.084       .  S
C949       Br955   1.919       .  S
C956        C957   1.419       .  A
C956        C961   1.407       .  A
C957        C958   1.404       .  A
C957       Br973   1.920       .  S
C958        C959   1.401       .  A
C958        H962   1.084       .  S
C959        C963   1.478       .  S
C959        C960   1.404       .  A
C960        C961   1.394       .  A
C960       Br972   1.919       .  S
C961        H964   1.082       .  S
C963        C965   1.400       .  A
C963        C969   1.405       .  A
C965        C966   1.400       .  A
C965        H970   1.084       .  S
C966        C967   1.418       .  A
C966       Br974   1.922       .  S
C967        C968   1.407       .  A
C968        C969   1.400       .  A
C968        H971   1.082       .  S
C969       Br975   1.918       .  S
C976        C977   1.418       .  A
C976        C981   1.410       .  A
C977        C978   1.401       .  A
C977       Br993   1.919       .  S
C978        C979   1.400       .  A
C978        H982   1.084       .  S
C979        C983   1.476       .  S
C979        C980   1.404       .  A
C980        C981   1.398       .  A
C980       Br992   1.919   1_655  S
C981        H984   1.083       .  S
C983        C985   1.402       .  A
C983        C989   1.402       .  A
C985        C986   1.407       .  A
C985        H990   1.083       .  S
C986        C987   1.421       .  A
C986       Br994   1.921       .  S
C987        C988   1.409       .  A
C988        C989   1.391       .  A
C988        H991   1.083       .  S
C989       Br995   1.922       .  S
C996        C997   1.414       .  A
C996       C1001   1.403       .  A
C997        C998   1.401       .  A
C997      Br1013   1.921       .  S
C998        C999   1.402       .  A
C998       H1002   1.084       .  S
C999       C1003   1.480       .  S
C999       C1000   1.406       .  A
C1000      C1001   1.399       .  A
C1000     Br1012   1.912       .  S
C1001      H1004   1.084       .  S
C1003      C1005   1.399       .  A
C1003      C1009   1.408       .  A
C1005      C1006   1.394       .  A
C1005      H1010   1.084       .  S
C1006      C1007   1.409       .  A
C1006     Br1014   1.915       .  S
C1007      C1008   1.407       .  A
C1008      C1009   1.405       .  A
C1008      H1011   1.082       .  S
C1009     Br1015   1.916       .  S
C1016      C1017   1.421       .  A
C1016      C1021   1.409       .  A
C1017      C1018   1.398       .  A
C1017     Br1033   1.924       .  S
C1018      C1019   1.399       .  A
C1018      H1022   1.084       .  S
C1019      C1023   1.481       .  S
C1019      C1020   1.406       .  A
C1020      C1021   1.401       .  A
C1020     Br1032   1.918       .  S
C1021      H1024   1.083       .  S
C1023      C1025   1.401       .  A
C1023      C1029   1.407       .  A
C1025      C1026   1.399       .  A
C1025      H1030   1.084       .  S
C1026      C1027   1.414       .  A
C1026     Br1034   1.921       .  S
C1027      C1028   1.408       .  A
C1028      C1029   1.400       .  A
C1028      H1031   1.083       .  S
C1029     Br1035   1.919       .  S
C1036      C1037   1.408       .  A
C1036      C1041   1.405       .  A
C1037      C1038   1.397       .  A
C1037     Br1053   1.919       .  S
C1038      C1039   1.402       .  A
C1038      H1042   1.084       .  S
C1039      C1043   1.483       .  S
C1039      C1040   1.410       .  A
C1040      C1041   1.404       .  A
C1040     Br1052   1.917       .  S
C1041      H1044   1.082       .  S
C1043      C1045   1.401       .  A
C1043      C1049   1.409       .  A
C1045      C1046   1.398       .  A
C1045      H1050   1.084       .  S
C1046      C1047   1.414       .  A
C1046     Br1054   1.921       .  S
C1047      C1048   1.406       .  A
C1048      C1049   1.402       .  A
C1048      H1051   1.083       .  S
C1049     Br1055   1.914       .  S
C1056      C1057   1.422       .  A
C1056      C1061   1.411       .  A
C1057      C1058   1.398   1_565  A
C1057     Br1073   1.918       .  S
C1058      C1059   1.398       .  A
C1058      H1062   1.084       .  S
C1059      C1063   1.479       .  S
C1059      C1060   1.406       .  A
C1060      C1061   1.399   1_545  A
C1060     Br1072   1.919       .  S
C1061      H1064   1.083       .  S
C1063      C1065   1.402       .  A
C1063      C1069   1.410       .  A
C1065      C1066   1.400       .  A
C1065      H1070   1.083       .  S
C1066      C1067   1.412       .  A
C1066     Br1074   1.920       .  S
C1067      C1068   1.402       .  A
C1068      C1069   1.397       .  A
C1068      H1071   1.084       .  S
C1069     Br1075   1.921       .  S
C1076      C1077   1.408       .  A
C1076      C1081   1.405       .  A
C1077      C1078   1.394       .  A
C1077     Br1093   1.917   1_455  S
C1078      C1079   1.402       .  A
C1078      H1082   1.084   1_455  S
C1079      C1083   1.475       .  S
C1079      C1080   1.408       .  A
C1080      C1081   1.399       .  A
C1080     Br1092   1.919       .  S
C1081      H1084   1.083       .  S
C1083      C1085   1.405       .  A
C1083      C1089   1.409   1_455  A
C1085      C1086   1.397       .  A
C1085      H1090   1.083       .  S
C1086      C1087   1.404   1_455  A
C1086     Br1094   1.919       .  S
C1087      C1088   1.400       .  A
C1088      C1089   1.394       .  A
C1088      H1091   1.084       .  S
C1089     Br1095   1.920       .  S
