geometry optimzed in LAMMPS
_audit_creation_date              2020-11-30 
_audit_creation_method            'lammps2cif' 
_symmetry_space_group_name_H-M    'P1' 
_symmetry_Int_Tables_number       1 
_symmetry_cell_setting            triclinic 
loop_ 
_symmetry_equiv_pos_as_xyz 
  x,y,z 
_cell_length_a                    32.61998307 
_cell_length_b                    32.459918480253386 
_cell_length_c                    37.25830900409355 
_cell_angle_alpha                 90.870538917221 
_cell_angle_beta                  89.14766120558224 
_cell_angle_gamma                 120.36308789511777 
loop_ 
_atom_site_label 
_atom_site_type_symbol 
_atom_site_fract_x 
_atom_site_fract_y 
_atom_site_fract_z 
_atom_site_charge 
C1          C  0.67195519  0.37613266  0.00565818     0.03100
C2          C  0.71345646  0.37366904  0.50264883    -0.13000
C3          C  0.70734368  0.32743770  0.50100100     0.00600
C4          C  0.66102683  0.28779053  0.50385984    -0.11500
C5          C  0.61905282  0.28912878  0.00903725     0.03100
C6          C  0.62617528  0.33560445  0.00966015    -0.11000
H7          H  0.74856436  0.40426260  0.49898083     0.08700
H8          H  0.65537695  0.25226478  0.49955338     0.06200
H9          H  0.59549594  0.33968816  0.01349307     0.06100
C10         C  0.38302305  0.67440514  0.00836748     0.03100
C11         C  0.37590439  0.71324294  0.00308596    -0.13000
C12         C  0.33010372  0.70630338  0.99707755     0.00600
C13         C  0.29154680  0.65908451  0.99646625    -0.11500
C14         C  0.29703377  0.61986794  0.00436447     0.03600
C15         C  0.34319665  0.62797281  0.01014577    -0.11000
H16         H  0.40657407  0.74884515  0.00402505     0.08700
H17         H  0.25676394  0.65231302  0.98906076     0.06200
H18         H  0.34839834  0.59820853  0.01530814     0.06100
C19         C  0.70856530  0.70540553  0.00053791    -0.02500
C20         C  0.99907391  0.29290366  0.00133771    -0.02500
C21         C  0.28999448  0.99590667  0.99679028    -0.02500
Fe22       Fe  0.94019816  0.00111079  0.24931400     1.65800
Fe23       Fe  0.99966482  0.94028438  0.25013044     1.73200
Fe24       Fe  0.06114460  0.06195665  0.24875736     1.54400
O25         O  0.04157803  0.08681241  0.20560769    -0.81700
O26         O  0.05599524  0.96463865  0.28486387    -0.80000
O27         O  0.96491368  0.06015660  0.21590472    -0.84200
O28         O  0.95905364  0.04426250  0.29420600    -0.79000
O29         O  0.09204670  0.03671918  0.21221910    -0.80800
O30         O  0.95595114  0.91787824  0.29444723    -0.83600
C31         C  0.99769527  0.08204500  0.30184027     0.97200
C32         C  0.00349818  0.08660855  0.19911554     1.04600
O33         O  0.00057011  0.00122712  0.24937181    -1.12500
O34         O  0.94225573  0.90665363  0.21550652    -0.75000
O35         O  0.91737914  0.95778218  0.20452212    -0.78500
O36         O  0.03671800  0.09469799  0.28522046    -0.79100
C37         C  0.91695095  0.91901527  0.19814721     0.96100
O38         O  0.90480237  0.94207811  0.28273488    -0.77100
O39         O  0.04485914  0.95775138  0.20645888    -0.82300
C40         C  0.08535375  0.00406743  0.29949227     0.98700
C41         C  0.08123662  0.99692866  0.19743428     1.04700
O42         O  0.08861415  0.04344039  0.29122895    -0.77900
C43         C  0.91742273  0.91733520  0.30053784     1.03000
C44         C  0.22300527  0.07675670  0.07018219    -0.17800
C45         C  0.19233199  0.07632146  0.09691653    -0.20000
C46         C  0.16898928  0.03730124  0.12004706     0.20700
C47         C  0.17743832  0.99881215  0.11674767    -0.02900
C48         C  0.20928414  0.99979473  0.09020745    -0.06000
C49         C  0.23127511  0.03847578  0.06646493     0.20900
C50         C  0.21855926  0.96187332  0.08708877     0.19100
C51         C  0.19590839  0.92330521  0.11083011    -0.17500
C52         C  0.16342295  0.92174304  0.13662610    -0.19700
C53         C  0.15371996  0.95917742  0.13966811     0.20600
C54         C  0.12101634  0.95794448  0.16527051    -0.32700
C55         C  0.11302470  0.99656433  0.16894239     0.01300
C56         C  0.13733502  0.03616789  0.14635924    -0.24000
C57         C  0.25946187  0.03737370  0.03832796    -0.28600
C58         C  0.26658132  0.99814109  0.03295443     0.06900
C59         C  0.24886395  0.96232742  0.05953031    -0.27300
H60         H  0.23986059  0.10683146  0.05212068     0.11700
H61         H  0.18633046  0.10618126  0.09916107     0.12800
H62         H  0.20244021  0.89376873  0.10888349     0.11900
H63         H  0.14581046  0.89117270  0.15417933     0.11100
H64         H  0.10277966  0.92759690  0.18300483     0.16500
H65         H  0.13119706  0.06592989  0.14906586     0.12400
H66         H  0.27358689  0.06597565  0.01894464     0.15300
H67         H  0.25673293  0.93379886  0.05846668     0.15000
C68         C  0.27479076  0.06512923  0.37725212    -0.17800
C69         C  0.24502087  0.06775503  0.35177038    -0.20000
C70         C  0.19595872  0.03494704  0.35224758     0.20700
C71         C  0.17685257  0.99885646  0.37844121    -0.02900
C72         C  0.20671032  0.99706932  0.40468730    -0.06000
C73         C  0.25592752  0.03028512  0.40413522     0.20900
C74         C  0.18717144  0.96228667  0.43166250     0.19100
C75         C  0.13840732  0.92845286  0.43156961    -0.17500
C76         C  0.10902418  0.92943923  0.40509965    -0.19700
C77         C  0.12780175  0.96477347  0.37867414     0.20600
C78         C  0.09833361  0.96678297  0.35263627    -0.32700
C79         C  0.11685699  0.00336964  0.32711616     0.01300
C80         C  0.16564230  0.03747547  0.32705722    -0.24000
C81         C  0.28513403  0.02896381  0.43102468    -0.28600
C82         C  0.26514697  0.99782016  0.46054254     0.06900
C83         C  0.21626056  0.96288346  0.45908811    -0.27300
H84         H  0.31247692  0.09108044  0.37640951     0.11700
H85         H  0.26036781  0.09549133  0.33171859     0.12800
H86         H  0.12291430  0.90142299  0.45215188     0.11900
H87         H  0.07146834  0.90300776  0.40563015     0.11100
H88         H  0.06073210  0.94035363  0.35255141     0.16500
H89         H  0.18005682  0.06514057  0.30689286     0.12400
H90         H  0.32302136  0.05320816  0.42916459     0.15300
H91         H  0.20007452  0.93753795  0.48068012     0.15000
C92         C  0.01760815  0.26525738  0.37248546    -0.17800
C93         C  0.02032300  0.23677059  0.34500568    -0.20000
C94         C  0.00762376  0.18927264  0.35157888     0.20700
C95         C  0.99105915  0.16998879  0.38602624    -0.02900
C96         C  0.98927404  0.19904819  0.41388596    -0.06000
C97         C  0.00287061  0.24695991  0.40718188     0.20900
C98         C  0.97400386  0.18013666  0.44846611     0.19100
C99         C  0.95904127  0.13200260  0.45473722    -0.17500
C100        C  0.96025721  0.10303054  0.42707749    -0.19700
C101        C  0.97662910  0.12179186  0.39272538     0.20600
C102        C  0.97887687  0.09325963  0.36498392    -0.32700
C103        C  0.99669513  0.11268601  0.33098976     0.01300
C104        C  0.01106860  0.16064592  0.32440414    -0.24000
C105        C  0.00288687  0.27612448  0.43546992    -0.28600
C106        C  0.99327197  0.25932283  0.47113373     0.06900
C107        C  0.97504690  0.20987898  0.47644373    -0.27300
H108        H  0.02804241  0.30191653  0.36679570     0.11700
H109        H  0.03260428  0.25200077  0.31861040     0.12800
H110        H  0.94700338  0.11690451  0.48120359     0.11900
H111        H  0.94891049  0.06610559  0.43265278     0.11100
H112        H  0.96739883  0.05610340  0.36987121     0.16500
H113        H  0.02386488  0.17524058  0.29788309     0.12400
H114        H  0.01303355  0.31278150  0.43008747     0.15300
H115        H  0.96221627  0.19421438  0.50262041     0.15000
C116        C  0.04534517  0.14927010  0.07614583    -0.17800
C117        C  0.04531573  0.17836698  0.04887892    -0.20000
C118        C  0.02690709  0.20867549  0.05531363     0.20700
C119        C  0.00910511  0.21034361  0.08958418    -0.02900
C120        C  0.00796036  0.18002940  0.11689633    -0.06000
C121        C  0.02634564  0.14947969  0.11011634     0.20900
C122        C  0.98820324  0.18008167  0.15083823     0.19100
C123        C  0.97156012  0.21184491  0.15752468    -0.17500
C124        C  0.97425804  0.24308408  0.13078148    -0.19700
C125        C  0.99247108  0.24225265  0.09655415     0.20600
C126        C  0.99307886  0.27168420  0.06890722    -0.32700
C127        C  0.00462391  0.26562299  0.03323170     0.01300
C128        C  0.02497291  0.23636224  0.02770209    -0.24000
C129        C  0.02524439  0.11958026  0.13736153    -0.28600
C130        C  0.00437603  0.11841279  0.17084557     0.06900
C131        C  0.98564295  0.14850423  0.17741648    -0.27300
H132        H  0.05964848  0.12608949  0.07049739     0.11700
H133        H  0.05933722  0.17688003  0.02266761     0.12800
H134        H  0.95656259  0.21262497  0.18349183     0.11900
H135        H  0.96109493  0.26716101  0.13663616     0.11100
H136        H  0.98160895  0.29714589  0.07467907     0.16500
H137        H  0.03877223  0.23425119  0.00157910     0.12400
H138        H  0.03974858  0.09641127  0.13234085     0.15300
H139        H  0.97018807  0.14809189  0.20346951     0.15000
C140        C  0.76129307  0.78817054  0.34325165    -0.17800
C141        C  0.73309674  0.75612313  0.37009451    -0.20000
C142        C  0.75171975  0.75861651  0.40432613     0.20700
C143        C  0.79953273  0.79308544  0.41122074    -0.02900
C144        C  0.82851246  0.82414897  0.38378730    -0.06000
C145        C  0.80903763  0.82233973  0.34982882     0.20900
C146        C  0.87695341  0.85703217  0.39040473     0.19100
C147        C  0.89583532  0.85887976  0.42434970    -0.17500
C148        C  0.86674944  0.82910878  0.45178231    -0.19700
C149        C  0.81849883  0.79646215  0.44551486     0.20600
C150        C  0.78878425  0.76797534  0.47326262    -0.32700
C151        C  0.73960233  0.73586096  0.46777275     0.01300
C152        C  0.72308215  0.72826366  0.43205164    -0.24000
C153        C  0.83784544  0.85433004  0.32301995    -0.28600
C154        C  0.88625690  0.88641826  0.32937462     0.06900
C155        C  0.90566355  0.88732252  0.36293500    -0.27300
H156        H  0.74583345  0.78602361  0.31726617     0.11700
H157        H  0.69638783  0.73006562  0.36431062     0.12800
H158        H  0.93297022  0.88379996  0.42982506     0.11900
H159        H  0.88192319  0.83184921  0.47799584     0.11100
H160        H  0.80447830  0.77129904  0.49930641     0.16500
H161        H  0.68676252  0.70092061  0.42638538     0.12400
H162        H  0.82315450  0.85322184  0.29687339     0.15300
H163        H  0.94307936  0.91207872  0.36771412     0.15000
C164        C  0.81621670  0.89036796  0.09258264    -0.17800
C165        C  0.78494531  0.85968278  0.06650112    -0.20000
C166        C  0.77150063  0.81125078  0.06581763     0.20700
C167        C  0.78911894  0.79329915  0.09184176    -0.02900
C168        C  0.82108738  0.82434866  0.11796587    -0.06000
C169        C  0.83467350  0.87310707  0.11826629     0.20900
C170        C  0.83959553  0.80668650  0.14361333     0.19100
C171        C  0.82521596  0.75795686  0.14331748    -0.17500
C172        C  0.79292363  0.72703118  0.11770659    -0.19700
C173        C  0.77503702  0.74445666  0.09162539     0.20600
C174        C  0.74467829  0.71425252  0.06464347    -0.32700
C175        C  0.73163543  0.73307471  0.03585179     0.01300
C176        C  0.74244456  0.78103839  0.03855894    -0.24000
C177        C  0.86632146  0.90377771  0.14429510    -0.28600
C178        C  0.88505519  0.88658511  0.16992959     0.06900
C179        C  0.87181052  0.83800642  0.16923262    -0.27300
H180        H  0.82625911  0.92768981  0.09249817     0.11700
H181        H  0.77169473  0.87396179  0.04658869     0.12800
H182        H  0.83895872  0.74375863  0.16289505     0.11900
H183        H  0.78265547  0.68963958  0.11786703     0.11100
H184        H  0.73284102  0.67664107  0.06587258     0.16500
H185        H  0.73103144  0.79575774  0.01761032     0.12400
H186        H  0.87645088  0.94115421  0.14453746     0.15300
H187        H  0.88576279  0.82434070  0.18909334     0.15000
C188        C  0.12537718  0.51415898  0.03045113    -0.17800
C189        C  0.08398879  0.46926458  0.02962717    -0.20000
C190        C  0.08541075  0.42898441  0.01712140     0.20700
C191        C  0.12741228  0.43480418  0.50274922    -0.02900
C192        C  0.16865918  0.48072963  0.50288207    -0.06000
C193        C  0.16890834  0.51966248  0.01857025     0.20900
C194        C  0.20789599  0.49008576  0.48075359     0.19100
C195        C  0.20546503  0.45347313  0.45869224    -0.17500
C196        C  0.16467481  0.40802778  0.45862997    -0.19700
C197        C  0.12540815  0.39833981  0.48049761     0.20600
C198        C  0.08439015  0.35278610  0.48052580    -0.32700
C199        C  0.04466551  0.34315810  0.00266490     0.01300
C200        C  0.04391967  0.38387142  0.01601766    -0.24000
C201        C  0.21043910  0.56465154  0.01900757    -0.28600
C202        C  0.25403838  0.57081786  0.00594774     0.06900
C203        C  0.24878689  0.53581759  0.48106473    -0.27300
H204        H  0.12327263  0.54466517  0.04018853     0.11700
H205        H  0.05080020  0.46607889  0.03871469     0.12800
H206        H  0.23517406  0.45996142  0.44148518     0.11900
H207        H  0.16379242  0.38044613  0.44134586     0.11100
H208        H  0.08482652  0.32486402  0.46464522     0.16500
H209        H  0.01123980  0.38076196  0.02618785     0.12400
H210        H  0.20865946  0.59500149  0.02956246     0.15300
H211        H  0.27870631  0.54309158  0.46379689     0.15000
C212        C  0.22594325  0.77813709  0.00340769    -0.17800
C213        C  0.22002541  0.81796710  0.00186353    -0.20000
C214        C  0.25877530  0.86329513  0.99387683     0.20700
C215        C  0.30288694  0.87068672  0.49192734    -0.02900
C216        C  0.30882878  0.83044153  0.49312674    -0.06000
C217        C  0.27048923  0.78270172  0.99619528     0.20900
C218        C  0.34623461  0.83026377  0.47375722     0.19100
C219        C  0.37669397  0.86995941  0.45272279    -0.17500
C220        C  0.37053965  0.90965857  0.45134211    -0.19700
C221        C  0.33404423  0.91059519  0.47117309     0.20600
C222        C  0.32883778  0.95108536  0.47127707    -0.32700
C223        C  0.29448295  0.95057100  0.99137145     0.01300
C224        C  0.25428935  0.90423518  0.99513639    -0.24000
C225        C  0.27755339  0.74363175  0.99969961    -0.28600
C226        C  0.32215681  0.74779878  0.99178014     0.06900
C227        C  0.35246156  0.79045763  0.47575381    -0.27300
H228        H  0.19578598  0.74385538  0.01065390     0.11700
H229        H  0.18546164  0.81355651  0.00801654     0.12800
H230        H  0.40546210  0.87042874  0.43748691     0.11900
H231        H  0.39481639  0.93995928  0.43516021     0.11100
H232        H  0.35272670  0.98148987  0.45501901     0.16500
H233        H  0.21987220  0.90025387  0.00113373     0.12400
H234        H  0.24833676  0.71055543  0.00976694     0.15300
H235        H  0.38094781  0.79028175  0.46055755     0.15000
C236        C  0.54363786  0.64271283  0.55322079    -0.17800
C237        C  0.49843158  0.63786866  0.55406134    -0.20000
C238        C  0.48634475  0.66206881  0.52925030     0.20700
C239        C  0.52405131  0.69304371  0.00770456    -0.02900
C240        C  0.56934763  0.69700563  0.00589615    -0.06000
C241        C  0.57757990  0.67175811  0.52751173     0.20900
C242        C  0.60170459  0.72368300  0.97835594     0.19100
C243        C  0.58859367  0.74631029  0.95290346    -0.17500
C244        C  0.54364173  0.74193958  0.95439998    -0.19700
C245        C  0.51106301  0.71529449  0.98161539     0.20600
C246        C  0.46555098  0.71000637  0.98283304    -0.32700
C247        C  0.43231017  0.68228703  0.00954898     0.01300
C248        C  0.44061107  0.65644448  0.52918705    -0.24000
C249        C  0.62247710  0.67566879  0.52577180    -0.28600
C250        C  0.65922395  0.70250508  0.00082035     0.06900
C251        C  0.64663039  0.72749970  0.97665251    -0.27300
H252        H  0.55189056  0.62332999  0.57248173     0.11700
H253        H  0.47278492  0.61487091  0.57395671     0.12800
H254        H  0.61294349  0.76698700  0.93152771     0.11900
H255        H  0.53428714  0.75929456  0.93414450     0.11100
H256        H  0.45540093  0.72633437  0.96226527     0.16500
H257        H  0.41421887  0.63313676  0.54857555     0.12400
H258        H  0.63092098  0.65616135  0.54480151     0.15300
H259        H  0.67163731  0.75116471  0.95692153     0.15000
C260        C  0.40466747  0.17730186  0.48194256    -0.17800
C261        C  0.45022520  0.21754763  0.48365105    -0.20000
C262        C  0.48823427  0.21406860  0.49726614     0.20700
C263        C  0.47753505  0.16612301  0.00592064    -0.02900
C264        C  0.43149537  0.12533160  0.00390209    -0.06000
C265        C  0.39646670  0.13267140  0.49322397     0.20900
C266        C  0.41883188  0.08604537  0.02629221     0.19100
C267        C  0.45226113  0.08778088  0.05053783    -0.17500
C268        C  0.49807196  0.12787553  0.05221056    -0.19700
C269        C  0.51118101  0.16720276  0.02991562     0.20600
C270        C  0.55728163  0.20744213  0.03105362    -0.32700
C271        C  0.56992918  0.24697520  0.00891096     0.01300
C272        C  0.53415094  0.25412309  0.49841663    -0.24000
C273        C  0.35110836  0.09191444  0.49066208    -0.28600
C274        C  0.33996685  0.04225837  0.99816129     0.06900
C275        C  0.37316126  0.04557235  0.02387032    -0.27300
H276        H  0.37595739  0.18095572  0.47126927     0.11700
H277        H  0.45573716  0.25143721  0.47428228     0.12800
H278        H  0.44312450  0.05789491  0.06799462     0.11900
H279        H  0.52328276  0.12807927  0.07091852     0.11100
H280        H  0.58324893  0.20819023  0.04927771     0.16500
H281        H  0.54011283  0.28747538  0.48750186     0.12400
H282        H  0.32215057  0.09610807  0.48145188     0.15300
H283        H  0.36351993  0.01569350  0.04149104     0.15000
C284        C  0.77098716  0.55336083  0.02057668    -0.17800
C285        C  0.77669360  0.59897664  0.01742280    -0.20000
C286        C  0.73862132  0.60441757  0.00660369     0.20700
C287        C  0.69415224  0.56618689  0.49780161    -0.02900
C288        C  0.68954583  0.52065131  0.50075400    -0.06000
C289        C  0.72755037  0.51242113  0.01186878     0.20900
C290        C  0.64618024  0.47939173  0.49213215     0.19100
C291        C  0.60776229  0.48388055  0.48082594    -0.17500
C292        C  0.61201184  0.52887483  0.47871634    -0.19700
C293        C  0.65495114  0.57024447  0.48743526     0.20600
C294        C  0.65893168  0.61538117  0.48668401    -0.32700
C295        C  0.70343061  0.65512967  0.99854358     0.01300
C296        C  0.74334463  0.64981632  0.00451426    -0.24000
C297        C  0.72146603  0.46640297  0.01451518    -0.28600
C298        C  0.67847039  0.42541687  0.00402434     0.06900
C299        C  0.64194340  0.43434215  0.49465077    -0.27300
H300        H  0.80070059  0.55013906  0.02948971     0.11700
H301        H  0.81064866  0.62996888  0.02407328     0.12800
H302        H  0.57419140  0.45250285  0.47399862     0.11900
H303        H  0.58156760  0.53127562  0.47050358     0.11100
H304        H  0.62846706  0.61754317  0.47833488     0.16500
H305        H  0.77762623  0.68110735  0.00986275     0.12400
H306        H  0.75029699  0.46285824  0.02495855     0.15300
H307        H  0.60903231  0.40330493  0.48626384     0.15000
C308        C  0.90334096  0.36012723  0.95246651    -0.17800
C309        C  0.86272626  0.36443236  0.95241309    -0.20000
C310        C  0.82495169  0.33777518  0.97629803     0.20700
C311        C  0.82878885  0.30768663  0.49388484    -0.02900
C312        C  0.86945943  0.30283976  0.49414828    -0.06000
C313        C  0.90697207  0.32921076  0.97648623     0.20900
C314        C  0.86749717  0.26315026  0.51072579     0.19100
C315        C  0.82506789  0.22874950  0.52709683    -0.17500
C316        C  0.78546104  0.23463358  0.52824646    -0.19700
C317        C  0.78711275  0.27414418  0.51192794     0.20600
C318        C  0.74805919  0.28101458  0.51396325    -0.32700
C319        C  0.74680912  0.31600486  0.00123917     0.01300
C320        C  0.78448415  0.34262140  0.97704489    -0.24000
C321        C  0.94800642  0.32551831  0.97733587    -0.28600
C322        C  0.95293626  0.29594086  0.00240737     0.06900
C323        C  0.90822309  0.25902211  0.51139038    -0.27300
H324        H  0.93212017  0.38133276  0.93393024     0.11700
H325        H  0.86100365  0.38886479  0.93383943     0.12800
H326        H  0.82296613  0.19803457  0.54000471     0.11900
H327        H  0.75354841  0.20831823  0.54198030     0.11100
H328        H  0.71733530  0.25636734  0.52965769     0.16500
H329        H  0.78226921  0.36706308  0.95875774     0.12400
H330        H  0.97683665  0.34636293  0.95871471     0.15300
H331        H  0.90537635  0.22679355  0.52201471     0.15000
C332        C  0.67447993  0.38050201  0.50873794     0.03100
C333        C  0.71101783  0.36890851  0.00228198    -0.13000
C334        C  0.70488603  0.32275264  0.00329884     0.00600
C335        C  0.65869141  0.28309993  0.00652021    -0.11500
C336        C  0.62174707  0.29345408  0.51098535     0.03100
C337        C  0.62936295  0.33998741  0.51473908    -0.11000
H338        H  0.74648308  0.39908529  0.99879895     0.08700
H339        H  0.65343899  0.24736129  0.00579935     0.06200
H340        H  0.59969949  0.34458577  0.52201060     0.06100
C341        C  0.38008046  0.67425090  0.50345343     0.03100
C342        C  0.37384798  0.71400454  0.50084455    -0.13000
C343        C  0.32812512  0.70824610  0.49910502     0.00600
C344        C  0.28837615  0.66169993  0.49986044    -0.11500
C345        C  0.29366950  0.62144635  0.50247643     0.03600
C346        C  0.33972438  0.62810559  0.50432167    -0.11000
H347        H  0.40475315  0.74958138  0.50096173     0.08700
H348        H  0.25302379  0.65656501  0.49749484     0.06200
H349        H  0.34417083  0.59731649  0.50618059     0.06100
C350        C  0.70602900  0.70699488  0.49950463    -0.02500
C351        C  0.99821122  0.29297881  0.50299268    -0.02500
C352        C  0.29268314  0.00089929  0.49518181    -0.02500
Fe353      Fe  0.93802584  0.99790179  0.74913825     1.65800
Fe354      Fe  0.00091632  0.93934679  0.74898078     1.73200
Fe355      Fe  0.05978541  0.06184043  0.74867729     1.54400
O356        O  0.03843282  0.08867032  0.70788777    -0.81700
O357        O  0.05391113  0.96348908  0.78689027    -0.80000
O358        O  0.95990209  0.05376137  0.71323913    -0.84200
O359        O  0.95685486  0.04465792  0.79200340    -0.79000
O360        O  0.09081235  0.04034187  0.70970817    -0.80800
O361        O  0.95275906  0.91132762  0.79061970    -0.83600
C362        C  0.99577290  0.08106552  0.80133188     0.97200
C363        C  0.99908115  0.08438821  0.69909126     1.04600
O364        O  0.99964130  0.99970846  0.74896071    -1.12500
O365        O  0.94677129  0.90603020  0.71151890    -0.75000
O366        O  0.91337750  0.95107964  0.70646009    -0.78500
O367        O  0.03559218  0.09184477  0.78701078    -0.79100
C368        C  0.91720217  0.91534243  0.69725783     0.96100
O369        O  0.90532933  0.94164455  0.78491672    -0.77100
O370        O  0.05043742  0.96064476  0.70762048    -0.82300
C371        C  0.08476440  0.00353889  0.79980599     0.98700
C372        C  0.08343139  0.00088778  0.69662346     1.04700
O373        O  0.08998081  0.04296529  0.78928888    -0.77900
C374        C  0.91609714  0.91325860  0.79933010     1.03000
C375        C  0.18936790  0.05857705  0.55056869    -0.17800
C376        C  0.15993767  0.05830695  0.57838184    -0.20000
C377        C  0.15363044  0.03209497  0.60964659     0.20700
C378        C  0.17830508  0.00705917  0.61332946    -0.02900
C379        C  0.20918616  0.00864764  0.58571032    -0.06000
C380        C  0.21366373  0.03339449  0.55386195     0.20900
C381        C  0.23541342  0.98537629  0.58991298     0.19100
C382        C  0.22998702  0.96006966  0.62154591    -0.17500
C383        C  0.19796338  0.95687900  0.64834613    -0.19700
C384        C  0.17186946  0.98012023  0.64446554     0.20600
C385        C  0.13959284  0.97708733  0.67112931    -0.32700
C386        C  0.11526353  0.00221680  0.66766917     0.01300
C387        C  0.12295766  0.03027121  0.63720266    -0.24000
C388        C  0.24121150  0.03141168  0.52542735    -0.28600
C389        C  0.26509994  0.00525235  0.52808925     0.06900
C390        C  0.26558790  0.98669933  0.56205735    -0.27300
H391        H  0.19280412  0.07816454  0.52633793     0.11700
H392        H  0.14145209  0.07788399  0.57516779     0.12800
H393        H  0.24963513  0.94174174  0.62517106     0.11900
H394        H  0.19370816  0.93631628  0.67219253     0.11100
H395        H  0.13423759  0.95619673  0.69502819     0.16500
H396        H  0.10433308  0.04985385  0.63472673     0.12400
H397        H  0.24296302  0.04946320  0.50077125     0.15300
H398        H  0.28742583  0.97086925  0.56626569     0.15000
C399        C  0.26711381  0.02523049  0.86821558    -0.17800
C400        C  0.23962691  0.02962300  0.84157795    -0.20000
C401        C  0.19188214  0.01579991  0.84832958     0.20700
C402        C  0.17173243  0.99732888  0.88228247    -0.02900
C403        C  0.19992717  0.99435829  0.90944825    -0.06000
C404        C  0.24774155  0.00801921  0.90238869     0.20900
C405        C  0.18010478  0.97744639  0.94361227     0.19100
C406        C  0.13192246  0.96180264  0.95009675    -0.17500
C407        C  0.10370824  0.96362657  0.92301270    -0.19700
C408        C  0.12334519  0.98173406  0.88914620     0.20600
C409        C  0.09538784  0.98429632  0.86200406    -0.32700
C410        C  0.11542902  0.00357623  0.82846747     0.01300
C411        C  0.16371801  0.01954874  0.82173304    -0.24000
C412        C  0.27553004  0.00522693  0.92982355    -0.28600
C413        C  0.25791257  0.99401539  0.96541371     0.06900
C414        C  0.20879542  0.97710168  0.97100794    -0.27300
H415        H  0.30381415  0.03611213  0.86226795     0.11700
H416        H  0.25565909  0.04360774  0.81562206     0.12800
H417        H  0.11609924  0.94839741  0.97621867     0.11900
H418        H  0.06661916  0.95134809  0.92868800     0.11100
H419        H  0.05800825  0.97150874  0.86693768     0.16500
H420        H  0.17884646  0.03356159  0.79554102     0.12400
H421        H  0.31185609  0.01455083  0.92401508     0.15300
H422        H  0.19221005  0.96335075  0.99682667     0.15000
C423        C  0.05266715  0.27336095  0.87771049    -0.17800
C424        C  0.05403212  0.24303127  0.85119724    -0.20000
C425        C  0.02345743  0.19342576  0.85321930     0.20700
C426        C  0.99015007  0.17428841  0.88162638    -0.02900
C427        C  0.98907040  0.20485791  0.90848882    -0.06000
C428        C  0.02097558  0.25453156  0.90687856     0.20900
C429        C  0.95660399  0.18555501  0.93728228     0.19100
C430        C  0.92464957  0.13619178  0.93862084    -0.17500
C431        C  0.92554656  0.10590602  0.91195345    -0.19700
C432        C  0.95845845  0.12454205  0.88354613     0.20600
C433        C  0.96045266  0.09427789  0.85720299    -0.32700
C434        C  0.99440122  0.11297458  0.82938585     0.01300
C435        C  0.02570561  0.16257615  0.82750110    -0.24000
C436        C  0.02200060  0.28425478  0.93511260    -0.28600
C437        C  0.99334023  0.26453839  0.96604751     0.06900
C438        C  0.95810516  0.21556119  0.96515072    -0.27300
H439        H  0.07724038  0.31141437  0.87588753     0.11700
H440        H  0.07946270  0.25835961  0.82932183     0.12800
H441        H  0.89951423  0.12087638  0.96068138     0.11900
H442        H  0.90092644  0.06785246  0.91379495     0.11100
H443        H  0.93609343  0.05608806  0.85861064     0.16500
H444        H  0.05129507  0.17720002  0.80563560     0.12400
H445        H  0.04613981  0.32229015  0.93318962     0.15300
H446        H  0.93411384  0.20003911  0.98784001     0.15000
C447        C  0.07060184  0.18203433  0.59111315    -0.17800
C448        C  0.07227142  0.21374130  0.56540033    -0.20000
C449        C  0.03978297  0.23002159  0.56687257     0.20700
C450        C  0.00582190  0.21497001  0.59476725    -0.02900
C451        C  0.00390118  0.18265039  0.62066949    -0.06000
C452        C  0.03639628  0.16603690  0.61868028     0.20900
C453        C  0.96925874  0.16661271  0.64825059     0.19100
C454        C  0.93784246  0.18427454  0.65025974    -0.17500
C455        C  0.94013289  0.21676248  0.62476847    -0.19700
C456        C  0.97350186  0.23176300  0.59652410     0.20600
C457        C  0.97386248  0.26158417  0.56924310    -0.32700
C458        C  0.00357206  0.27162190  0.53863090     0.01300
C459        C  0.03926918  0.25911249  0.53979641    -0.24000
C460        C  0.03419684  0.13375053  0.64425784    -0.28600
C461        C  0.99945159  0.11702464  0.67156050     0.06900
C462        C  0.96685446  0.13339888  0.67330500    -0.27300
H463        H  0.09582382  0.16964854  0.58922196     0.11700
H464        H  0.09848668  0.22492544  0.54401154     0.12800
H465        H  0.91126118  0.17270880  0.67141847     0.11900
H466        H  0.91501880  0.22925968  0.62666301     0.11100
H467        H  0.94977285  0.27519631  0.57153620     0.16500
H468        H  0.06417973  0.26850535  0.51762532     0.12400
H469        H  0.05938626  0.12126593  0.64276881     0.15300
H470        H  0.94042482  0.12115760  0.69462776     0.15000
C471        C  0.76265783  0.77835891  0.84184939    -0.17800
C472        C  0.73499433  0.74709711  0.86932217    -0.20000
C473        C  0.75341582  0.75237628  0.90402386     0.20700
C474        C  0.80064428  0.78867300  0.91067797    -0.02900
C475        C  0.82899586  0.81928122  0.88280555    -0.06000
C476        C  0.80963530  0.81478448  0.84836789     0.20900
C477        C  0.87668198  0.85460010  0.88954194     0.19100
C478        C  0.89559223  0.85895726  0.92383542    -0.17500
C479        C  0.86725086  0.82926837  0.95151625    -0.19700
C480        C  0.81965125  0.79449557  0.94524596     0.20600
C481        C  0.79058386  0.76642638  0.97333190    -0.32700
C482        C  0.74163311  0.73305123  0.96820862     0.01300
C483        C  0.72511703  0.72316602  0.93244105    -0.24000
C484        C  0.83778981  0.84665177  0.82118760    -0.28600
C485        C  0.88536463  0.88153868  0.82793383     0.06900
C486        C  0.90467299  0.88495494  0.86190973    -0.27300
H487        H  0.74729847  0.77404813  0.81550699     0.11700
H488        H  0.69880406  0.71948597  0.86362579     0.12800
H489        H  0.93216191  0.88576009  0.92937289     0.11900
H490        H  0.88240283  0.83392465  0.97798390     0.11100
H491        H  0.80666920  0.77130959  0.99940349     0.16500
H492        H  0.68907648  0.69483450  0.92716822     0.12400
H493        H  0.82325918  0.84366551  0.79466312     0.15300
H494        H  0.94146763  0.91176901  0.86687490     0.15000
C495        C  0.81600966  0.88947234  0.59308038    -0.17800
C496        C  0.78386874  0.85954193  0.56717454    -0.20000
C497        C  0.76880310  0.81073134  0.56633989     0.20700
C498        C  0.78514169  0.79150097  0.59236712    -0.02900
C499        C  0.81788486  0.82177523  0.61842771    -0.06000
C500        C  0.83361080  0.87103199  0.61849162     0.20900
C501        C  0.83535098  0.80295870  0.64402692     0.19100
C502        C  0.81849580  0.75365202  0.64403188    -0.17500
C503        C  0.78560682  0.72353177  0.61833449    -0.19700
C504        C  0.76941040  0.74227860  0.59195195     0.20600
C505        C  0.73948476  0.71314943  0.56429956    -0.32700
C506        C  0.72812160  0.73337087  0.53541498     0.01300
C507        C  0.73973900  0.78148360  0.53872124    -0.24000
C508        C  0.86667154  0.90114027  0.64392432    -0.28600
C509        C  0.88479792  0.88302179  0.66926056     0.06900
C510        C  0.86915438  0.83383865  0.66912927    -0.27300
H511        H  0.82759412  0.92718467  0.59295053     0.11700
H512        H  0.77151510  0.87476593  0.54732753     0.12800
H513        H  0.83108897  0.73844482  0.66369578     0.11900
H514        H  0.77379558  0.68575817  0.61852537     0.11100
H515        H  0.72688070  0.67532048  0.56493724     0.16500
H516        H  0.72938867  0.79720121  0.51780457     0.12400
H517        H  0.87845770  0.93893814  0.64396056     0.15300
H518        H  0.88235999  0.81951422  0.68905888     0.15000
C519        C  0.13164406  0.50727386  0.54746387    -0.17800
C520        C  0.09103120  0.46170993  0.54754729    -0.20000
C521        C  0.08850547  0.42527082  0.52521359     0.20700
C522        C  0.12904149  0.43404801  0.00550809    -0.02900
C523        C  0.17081482  0.47952505  0.00594443    -0.06000
C524        C  0.17063775  0.51717992  0.52521636     0.20900
C525        C  0.21439671  0.48476815  0.99379735     0.19100
C526        C  0.21585537  0.44429090  0.98184008    -0.17500
C527        C  0.17467455  0.39911518  0.98214895    -0.19700
C528        C  0.13107503  0.39365745  0.99384530     0.20600
C529        C  0.08950330  0.34858470  0.99378650    -0.32700
C530        C  0.04403913  0.34305030  0.50161508     0.01300
C531        C  0.04774586  0.37956984  0.52495772    -0.24000
C532        C  0.21153084  0.56282284  0.52496668    -0.28600
C533        C  0.25087239  0.57257287  0.50296885     0.06900
C534        C  0.25559061  0.53033282  0.99360123    -0.27300
H535        H  0.13257073  0.53477984  0.56485548     0.11700
H536        H  0.06146462  0.45503197  0.56500172     0.12800
H537        H  0.24891915  0.44752415  0.97238568     0.11900
H538        H  0.17685287  0.36846300  0.97290652     0.11100
H539        H  0.09184961  0.31769654  0.98559333     0.16500
H540        H  0.01825778  0.37235381  0.54271026     0.12400
H541        H  0.21299074  0.59075117  0.54218273     0.15300
H542        H  0.28853660  0.53427725  0.98313735     0.15000
C543        C  0.24001851  0.79084095  0.53271370    -0.17800
C544        C  0.23402503  0.83052820  0.53133998    -0.20000
C545        C  0.26565788  0.87087159  0.51143256     0.20700
C546        C  0.30322811  0.86791010  0.98568731    -0.02900
C547        C  0.30887992  0.82746523  0.98621318    -0.06000
C548        C  0.27749840  0.79057174  0.51392950     0.20900
C549        C  0.35327683  0.83215344  0.97758497     0.19100
C550        C  0.39132483  0.87698627  0.96773666    -0.17500
C551        C  0.38594274  0.91710204  0.96782231    -0.19700
C552        C  0.34226601  0.91305137  0.97740189     0.20600
C553        C  0.33750779  0.95362050  0.97969484    -0.32700
C554        C  0.29487402  0.95391309  0.49374587     0.01300
C555        C  0.26108193  0.91160208  0.51133950    -0.24000
C556        C  0.28418822  0.75118397  0.51574391    -0.28600
C557        C  0.32163520  0.75061215  0.49682476     0.06900
C558        C  0.35925958  0.79230190  0.97956198    -0.27300
H559        H  0.21545246  0.76042223  0.54865566     0.11700
H560        H  0.20505598  0.82996869  0.54637968     0.12800
H561        H  0.42564172  0.88127530  0.96079500     0.11900
H562        H  0.41626258  0.95151558  0.96103565     0.11100
H563        H  0.36789501  0.98755781  0.97231657     0.16500
H564        H  0.23101638  0.90992667  0.52532484     0.12400
H565        H  0.26054606  0.72118518  0.53242835     0.15300
H566        H  0.39325977  0.79653998  0.97178497     0.15000
C567        C  0.55029382  0.64912097  0.05963794    -0.17800
C568        C  0.50546422  0.64518318  0.06146842    -0.20000
C569        C  0.49163658  0.66640349  0.03532842     0.20700
C570        C  0.52061488  0.69223206  0.50386183    -0.02900
C571        C  0.56620664  0.69696350  0.50297137    -0.06000
C572        C  0.58222270  0.67439015  0.03165442     0.20900
C573        C  0.60044518  0.72717648  0.47769299     0.19100
C574        C  0.58897881  0.75267583  0.45365700    -0.17500
C575        C  0.54376835  0.74768466  0.45428300    -0.19700
C576        C  0.50929528  0.71746567  0.47919627     0.20600
C577        C  0.46366371  0.71183077  0.47965823    -0.32700
C578        C  0.42883196  0.68101325  0.50428998     0.01300
C579        C  0.44586765  0.66092407  0.03596082    -0.24000
C580        C  0.62658135  0.67711662  0.02889134    -0.28600
C581        C  0.65665254  0.70384461  0.49939914     0.06900
C582        C  0.64556779  0.73153607  0.47679330    -0.27300
H583        H  0.55979713  0.63193654  0.07993769     0.11700
H584        H  0.48137157  0.62501571  0.08311427     0.12800
H585        H  0.61485202  0.77613487  0.43405498     0.11900
H586        H  0.53572475  0.76739959  0.43518982     0.11100
H587        H  0.45486529  0.73068268  0.46028557     0.16500
H588        H  0.42072342  0.63991395  0.05684596     0.12400
H589        H  0.63602295  0.65930063  0.04872661     0.15300
H590        H  0.67195304  0.75771791  0.45899493     0.15000
C591        C  0.41070929  0.16389869  0.95806386    -0.17800
C592        C  0.45618857  0.20427389  0.96006688    -0.20000
C593        C  0.48989145  0.20569478  0.98381086     0.20700
C594        C  0.48022103  0.16965095  0.50941696    -0.02900
C595        C  0.43436042  0.12876852  0.50692601    -0.06000
C596        C  0.39808170  0.12410437  0.97969512     0.20900
C597        C  0.42636554  0.08415756  0.51841969     0.19100
C598        C  0.46404839  0.08096730  0.53316836    -0.17500
C599        C  0.50943892  0.12150043  0.53585217    -0.19700
C600        C  0.51801901  0.16597953  0.52375885     0.20600
C601        C  0.56372599  0.20666987  0.52541255    -0.32700
C602        C  0.57249425  0.25098434  0.51219767     0.01300
C603        C  0.53577671  0.24585160  0.98561375    -0.24000
C604        C  0.35262488  0.08327084  0.97742405    -0.28600
C605        C  0.34317845  0.04591400  0.49859549     0.06900
C606        C  0.38099334  0.04348001  0.51479847    -0.27300
H607        H  0.38547771  0.16368161  0.93936103     0.11700
H608        H  0.46506573  0.23435735  0.94290744     0.12800
H609        H  0.45853084  0.04699069  0.54233987     0.11900
H610        H  0.53794066  0.11794572  0.54705244     0.11100
H611        H  0.59245425  0.20365898  0.53679920     0.16500
H612        H  0.54534482  0.27592817  0.96822034     0.12400
H613        H  0.32707695  0.08468947  0.96018890     0.15300
H614        H  0.37532466  0.00997178  0.52506750     0.15000
C615        C  0.77167002  0.55801140  0.51988625    -0.17800
C616        C  0.77662833  0.60316757  0.51590887    -0.20000
C617        C  0.73793175  0.60757241  0.50518612     0.20700
C618        C  0.69470873  0.56359287  0.99848370    -0.02900
C619        C  0.68953222  0.51770403  0.00024144    -0.06000
C620        C  0.72825187  0.51645864  0.51234991     0.20900
C621        C  0.64626060  0.47717075  0.99031195     0.19100
C622        C  0.60835349  0.48265411  0.97928636    -0.17500
C623        C  0.61299452  0.52787079  0.97868607    -0.19700
C624        C  0.65595310  0.56854844  0.98838861     0.20600
C625        C  0.66042486  0.61388110  0.98858139    -0.32700
C626        C  0.70158126  0.65706532  0.49669514     0.01300
C627        C  0.74189266  0.65255016  0.50279392    -0.24000
C628        C  0.72294114  0.47090565  0.51605039    -0.28600
C629        C  0.67988285  0.42924075  0.50696592     0.06900
C630        C  0.64148822  0.43180459  0.99137399    -0.27300
H631        H  0.80189667  0.55560529  0.52868155     0.11700
H632        H  0.81051622  0.63465463  0.52188527     0.12800
H633        H  0.57482626  0.45183951  0.97155843     0.11900
H634        H  0.58290578  0.53100828  0.97065680     0.11100
H635        H  0.63016321  0.61660762  0.98054124     0.16500
H636        H  0.77586199  0.68415024  0.50830202     0.12400
H637        H  0.75245135  0.46818738  0.52608679     0.15300
H638        H  0.60876592  0.40159199  0.98180368     0.15000
C639        C  0.91275837  0.37549994  0.45950916    -0.17800
C640        C  0.87203449  0.37961685  0.45836871    -0.20000
C641        C  0.83018001  0.34654840  0.47626686     0.20700
C642        C  0.82790076  0.30593162  0.00005323    -0.02900
C643        C  0.86902030  0.30179264  0.00019757    -0.06000
C644        C  0.91208301  0.33777344  0.47803629     0.20900
C645        C  0.87190989  0.26989896  0.02385458     0.19100
C646        C  0.83351784  0.24205961  0.04691711    -0.17500
C647        C  0.79298951  0.24643304  0.04702709    -0.19700
C648        C  0.78991196  0.27839618  0.02381861     0.20600
C649        C  0.74970884  0.28357569  0.02424016    -0.32700
C650        C  0.74897251  0.32004567  0.49701818     0.01300
C651        C  0.79006315  0.35207515  0.47743631    -0.24000
C652        C  0.95341848  0.33486345  0.48135515    -0.28600
C653        C  0.95291130  0.29699336  0.50027744     0.06900
C654        C  0.91299528  0.26624398  0.02411895    -0.27300
H655        H  0.94499194  0.40224704  0.44636512     0.11700
H656        H  0.87368145  0.40939423  0.44430459     0.12800
H657        H  0.83504682  0.21723745  0.06521166     0.11900
H658        H  0.76409152  0.22490690  0.06537142     0.11100
H659        H  0.72110163  0.26316502  0.04312654     0.16500
H660        H  0.79118471  0.38158974  0.46338566     0.12400
H661        H  0.98590336  0.36211268  0.46887182     0.15300
H662        H  0.91271931  0.23908615  0.04068632     0.15000
loop_ 
_geom_bond_atom_site_label_1 
_geom_bond_atom_site_label_2 
_geom_bond_distance 
_geom_bond_site_symmetry_2 
_ccdc_geom_bond_type 
C1            C6   1.413       .  A
C1          C333   1.411       .  A
C1          C298   1.506       .  S
C2            C3   1.411       .  A
C2          C332   1.411       .  A
C2            H7   1.080       .  S
C3            C4   1.409       .  A
C3          C650   1.499       .  S
C4          C336   1.404       .  A
C4            H8   1.082       .  S
C5            C6   1.405       .  A
C5          C335   1.404       .  A
C5          C271   1.491       .  S
C6            H9   1.081       .  S
C10          C11   1.410       .  A
C10          C15   1.409       .  A
C10         C247   1.496       .  S
C11          C12   1.415   1_554  A
C11          H16   1.081       .  S
C12          C13   1.408       .  A
C12         C226   1.511       .  S
C13          C14   1.408   1_556  A
C13          H17   1.080       .  S
C14          C15   1.411       .  A
C14         C202   1.499       .  S
C15          H18   1.082       .  S
C19         C175   1.554       .  S
C19         C250   1.564       .  S
C19         C295   1.555   1_554  S
C19         C482   1.561   1_554  S
C20         C127   1.559   1_655  S
C20         C199   1.556   1_655  S
C20         C322   1.557       .  S
C20         C437   1.552   1_554  S
C21          C58   1.558   1_556  S
C21         C223   1.561       .  S
C21         C274   1.563   1_565  S
C21         C413   1.560       .  S
Fe22         O38   2.085   1_545  S
Fe22         O28   2.056       .  S
Fe22         O35   2.055   1_545  S
Fe22         O27   2.086       .  S
Fe22         O33   1.967   1_655  S
Fe23         O26   2.061   1_655  S
Fe23         O30   2.051       .  S
Fe23         O34   2.080       .  S
Fe23         O39   2.063   1_655  S
Fe23         O33   1.964   1_665  S
Fe24         O42   2.070       .  S
Fe24         O29   2.074       .  S
Fe24         O36   2.095       .  S
Fe24         O25   2.058       .  S
Fe24         O33   1.963       .  S
O25          C32   1.266       .  A
O26          C40   1.268   1_565  A
O27          C32   1.270   1_655  A
O28          C31   1.269       .  A
O29          C41   1.273   1_545  A
O30          C43   1.265       .  A
C31         C103   1.473       .  S
C31          O36   1.276   1_655  A
C32         C130   1.476       .  S
O34          C37   1.273       .  A
O35          C37   1.270       .  A
C37         C178   1.479       .  S
O38          C43   1.270       .  A
O39          C41   1.270       .  A
C40          C79   1.474       .  S
C40          O42   1.270       .  A
C41          C55   1.477       .  S
C43         C154   1.471       .  S
C44          C45   1.396       .  A
C44          C49   1.403       .  A
C44          H60   1.084       .  S
C45          C46   1.402       .  A
C45          H61   1.083       .  S
C46          C56   1.400       .  A
C46          C47   1.412   1_545  A
C47          C53   1.411       .  A
C47          C48   1.412       .  A
C48          C50   1.411       .  A
C48          C49   1.406   1_565  A
C49          C57   1.396       .  A
C50          C59   1.410       .  A
C50          C51   1.405       .  A
C51          C52   1.402       .  A
C51          H62   1.083       .  S
C52          C53   1.405       .  A
C52          H63   1.084       .  S
C53          C54   1.406       .  A
C54          C55   1.408       .  A
C54          H64   1.085       .  S
C55          C56   1.404   1_565  A
C56          H65   1.084       .  S
C57          C58   1.416   1_545  A
C57          H66   1.083       .  S
C58          C59   1.416       .  A
C59          H67   1.079       .  S
C68          C69   1.402       .  A
C68          C73   1.405       .  A
C68          H84   1.084       .  S
C69          C70   1.404       .  A
C69          H85   1.083       .  S
C70          C80   1.406       .  A
C70          C71   1.411   1_545  A
C71          C77   1.412       .  A
C71          C72   1.413       .  A
C72          C74   1.407       .  A
C72          C73   1.411   1_565  A
C73          C81   1.409       .  A
C74          C83   1.398       .  A
C74          C75   1.404       .  A
C75          C76   1.397       .  A
C75          H86   1.083       .  S
C76          C77   1.402       .  A
C76          H87   1.084       .  S
C77          C78   1.401       .  A
C78          C79   1.404   1_565  A
C78          H88   1.085       .  S
C79          C80   1.406       .  A
C80          H89   1.084       .  S
C81          C82   1.415   1_545  A
C81          H90   1.080       .  S
C82          C83   1.416       .  A
C82         C352   1.556   1_565  S
C83          H91   1.082       .  S
C92          C93   1.401       .  A
C92          C97   1.404       .  A
C92         H108   1.083       .  S
C93          C94   1.404       .  A
C93         H109   1.084       .  S
C94         C104   1.405       .  A
C94          C95   1.412   1_455  A
C95         C101   1.413       .  A
C95          C96   1.412       .  A
C96          C98   1.407       .  A
C96          C97   1.410   1_655  A
C97         C105   1.406       .  A
C98         C107   1.399       .  A
C98          C99   1.404       .  A
C99         C100   1.398       .  A
C99         H110   1.084       .  S
C100        C101   1.403       .  A
C100        H111   1.083       .  S
C101        C102   1.403       .  A
C102        C103   1.404       .  A
C102        H112   1.084       .  S
C103        C104   1.405   1_655  A
C104        H113   1.085       .  S
C105        C106   1.414   1_455  A
C105        H114   1.083       .  S
C106        C107   1.418       .  A
C106        C351   1.555       .  S
C107        H115   1.083       .  S
C116        C117   1.398       .  A
C116        C121   1.402       .  A
C116        H132   1.084       .  S
C117        C118   1.404       .  A
C117        H133   1.083       .  S
C118        C128   1.399       .  A
C118        C119   1.406       .  A
C119        C125   1.411   1_455  A
C119        C120   1.413       .  A
C120        C122   1.411   1_455  A
C120        C121   1.413       .  A
C121        C129   1.403       .  A
C122        C131   1.407       .  A
C122        C123   1.405       .  A
C123        C124   1.402       .  A
C123        H134   1.083       .  S
C124        C125   1.404       .  A
C124        H135   1.084       .  S
C125        C126   1.409       .  A
C126        C127   1.414   1_655  A
C126        H136   1.084       .  S
C127        C128   1.419       .  A
C128        H137   1.082       .  S
C129        C130   1.404       .  A
C129        H138   1.085       .  S
C130        C131   1.407   1_455  A
C131        H139   1.084       .  S
C140        C141   1.402       .  A
C140        C145   1.404       .  A
C140        H156   1.083       .  S
C141        C142   1.404       .  A
C141        H157   1.083       .  S
C142        C152   1.408       .  A
C142        C143   1.410       .  A
C143        C149   1.406       .  A
C143        C144   1.412       .  A
C144        C146   1.413       .  A
C144        C145   1.411       .  A
C145        C153   1.406       .  A
C146        C155   1.401       .  A
C146        C147   1.402       .  A
C147        C148   1.397       .  A
C147        H158   1.084       .  S
C148        C149   1.404       .  A
C148        H159   1.084       .  S
C149        C150   1.399       .  A
C150        C151   1.419       .  A
C150        H160   1.082       .  S
C151        C152   1.414       .  A
C151        C350   1.560       .  S
C152        H161   1.084       .  S
C153        C154   1.406       .  A
C153        H162   1.084       .  S
C154        C155   1.403       .  A
C155        H163   1.085       .  S
C164        C165   1.396       .  A
C164        C169   1.402       .  A
C164        H180   1.083       .  S
C165        C166   1.402       .  A
C165        H181   1.084       .  S
C166        C176   1.397       .  A
C166        C167   1.408       .  A
C167        C173   1.410       .  A
C167        C168   1.410       .  A
C168        C170   1.411       .  A
C168        C169   1.411       .  A
C169        C177   1.400       .  A
C170        C179   1.403       .  A
C170        C171   1.404       .  A
C171        C172   1.400       .  A
C171        H182   1.084       .  S
C172        C173   1.404       .  A
C172        H183   1.084       .  S
C173        C174   1.404       .  A
C174        C175   1.415       .  A
C174        H184   1.080       .  S
C175        C176   1.414       .  A
C176        H185   1.084       .  S
C177        C178   1.405       .  A
C177        H186   1.084       .  S
C178        C179   1.409       .  A
C179        H187   1.084       .  S
C188        C189   1.399       .  A
C188        C193   1.404       .  A
C188        H204   1.083       .  S
C189        C190   1.404       .  A
C189        H205   1.084       .  S
C190        C200   1.405       .  A
C190        C522   1.410       .  A
C191        C197   1.409       .  A
C191        C192   1.416       .  A
C191        C521   1.409       .  A
C192        C194   1.412       .  A
C192        C524   1.411       .  A
C193        C201   1.403       .  A
C193        C523   1.409       .  A
C194        C203   1.408       .  A
C194        C195   1.404       .  A
C195        C196   1.401       .  A
C195        H206   1.083       .  S
C196        C197   1.405       .  A
C196        H207   1.084       .  S
C197        C198   1.406       .  A
C198        C530   1.416       .  A
C198        H208   1.081       .  S
C199        C200   1.417       .  A
C199        C529   1.417   1_554  A
C200        H209   1.082       .  S
C201        C202   1.412       .  A
C201        H210   1.083       .  S
C202        C534   1.410   1_554  A
C203        C533   1.409       .  A
C203        H211   1.084       .  S
C212        C213   1.403       .  A
C212        C217   1.406   1_554  A
C212        H228   1.083       .  S
C213        C214   1.405   1_554  A
C213        H229   1.084       .  S
C214        C224   1.409       .  A
C214        C546   1.410       .  A
C215        C221   1.409       .  A
C215        C216   1.416       .  A
C215        C545   1.409       .  A
C216        C218   1.411       .  A
C216        C548   1.411       .  A
C217        C225   1.407       .  A
C217        C547   1.407       .  A
C218        C227   1.409       .  A
C218        C219   1.405       .  A
C219        C220   1.403       .  A
C219        H230   1.083       .  S
C220        C221   1.405       .  A
C220        H231   1.084       .  S
C221        C222   1.408       .  A
C222        C554   1.418       .  A
C222        H232   1.084       .  S
C223        C224   1.417       .  A
C223        C553   1.418       .  A
C224        H233   1.083   1_556  S
C225        C226   1.418       .  A
C225        H234   1.081   1_556  S
C226        C558   1.412       .  A
C227        C557   1.412       .  A
C227        H235   1.083       .  S
C236        C237   1.402       .  A
C236        C241   1.405       .  A
C236        H252   1.084       .  S
C237        C238   1.405       .  A
C237        H253   1.083       .  S
C238        C248   1.408       .  A
C238        C570   1.412       .  A
C239        C245   1.410   1_554  A
C239        C240   1.418       .  A
C239        C569   1.413       .  A
C240        C242   1.410   1_554  A
C240        C572   1.408       .  A
C241        C249   1.405       .  A
C241        C571   1.408       .  A
C242        C251   1.407       .  A
C242        C243   1.404       .  A
C243        C244   1.400       .  A
C243        H254   1.084       .  S
C244        C245   1.404       .  A
C244        H255   1.083       .  S
C245        C246   1.406       .  A
C246        C247   1.409   1_556  A
C246        H256   1.084       .  S
C247        C579   1.410       .  A
C248        C578   1.410       .  A
C248        H257   1.084       .  S
C249        C581   1.417       .  A
C249        H258   1.084       .  S
C250        C251   1.417   1_554  A
C250        C580   1.419       .  A
C251        H259   1.078       .  S
C260        C261   1.399       .  A
C260        C265   1.404       .  A
C260        H276   1.084       .  S
C261        C262   1.403       .  A
C261        H277   1.084       .  S
C262        C272   1.403       .  A
C262        C594   1.410       .  A
C263        C269   1.412       .  A
C263        C264   1.416       .  A
C263        C593   1.411   1_554  A
C264        C266   1.408       .  A
C264        C596   1.410   1_554  A
C265        C273   1.404       .  A
C265        C595   1.408       .  A
C266        C275   1.405       .  A
C266        C267   1.405       .  A
C267        C268   1.402       .  A
C267        H278   1.084       .  S
C268        C269   1.404       .  A
C268        H279   1.083       .  S
C269        C270   1.408       .  A
C270        C271   1.409       .  A
C270        H280   1.084       .  S
C271        C603   1.408   1_554  A
C272        C602   1.410       .  A
C272        H281   1.083       .  S
C273        C605   1.416       .  A
C273        H282   1.081       .  S
C274        C275   1.418   1_556  A
C274        C604   1.416       .  A
C275        H283   1.084       .  S
C284        C285   1.402       .  A
C284        C289   1.406       .  A
C284        H300   1.083       .  S
C285        C286   1.405       .  A
C285        H301   1.084       .  S
C286        C296   1.405       .  A
C286        C618   1.408   1_554  A
C287        C293   1.410       .  A
C287        C288   1.414       .  A
C287        C617   1.407       .  A
C288        C290   1.408       .  A
C288        C620   1.411       .  A
C289        C297   1.409       .  A
C289        C619   1.410       .  A
C290        C299   1.402       .  A
C290        C291   1.404       .  A
C291        C292   1.399       .  A
C291        H302   1.084       .  S
C292        C293   1.403       .  A
C292        H303   1.083       .  S
C293        C294   1.405       .  A
C294        C626   1.415       .  A
C294        H304   1.081       .  S
C295        C296   1.418   1_556  A
C295        C625   1.414       .  A
C296        H305   1.084       .  S
C297        C298   1.416       .  A
C297        H306   1.082       .  S
C298        C630   1.412   1_554  A
C299        C629   1.413       .  A
C299        H307   1.083       .  S
C308        C309   1.401       .  A
C308        C313   1.405       .  A
C308        H324   1.083       .  S
C309        C310   1.404       .  A
C309        H325   1.083       .  S
C310        C320   1.406       .  A
C310        C642   1.411   1_556  A
C311        C317   1.409       .  A
C311        C312   1.413       .  A
C311        C641   1.411       .  A
C312        C314   1.409       .  A
C312        C644   1.408       .  A
C313        C321   1.404       .  A
C313        C643   1.408   1_556  A
C314        C323   1.402       .  A
C314        C315   1.403       .  A
C315        C316   1.398       .  A
C315        H326   1.084       .  S
C316        C317   1.404       .  A
C316        H327   1.083       .  S
C317        C318   1.401       .  A
C318        C650   1.411       .  A
C318        H328   1.083       .  S
C319        C320   1.409   1_554  A
C319        C649   1.408       .  A
C319        C334   1.491       .  S
C320        H329   1.084       .  S
C321        C322   1.417   1_556  A
C321        H330   1.084       .  S
C322        C654   1.416       .  A
C323        C653   1.413       .  A
C323        H331   1.083       .  S
C332        C337   1.410       .  A
C332        C629   1.503       .  S
C333        C334   1.409       .  A
C333        H338   1.081   1_554  S
C334        C335   1.407       .  A
C335        H339   1.084       .  S
C336        C337   1.406       .  A
C336        C602   1.498       .  S
C337        H340   1.081       .  S
C341        C342   1.409       .  A
C341        C346   1.409       .  A
C341        C578   1.492       .  S
C342        C343   1.409       .  A
C342        H347   1.083       .  S
C343        C344   1.409       .  A
C343        C557   1.497       .  S
C344        C345   1.407       .  A
C344        H348   1.083       .  S
C345        C346   1.408       .  A
C345        C533   1.492       .  S
C346        H349   1.083       .  S
C350        C506   1.553       .  S
C350        C581   1.562       .  S
C350        C626   1.554       .  S
C351        C458   1.559   1_655  S
C351        C530   1.557   1_655  S
C351        C653   1.553       .  S
C352        C389   1.557       .  S
C352        C554   1.563   1_545  S
C352        C605   1.559       .  S
Fe353       O369   2.077       .  S
Fe353       O359   2.060   1_565  S
Fe353       O366   2.053       .  S
Fe353       O358   2.079   1_565  S
Fe353       O364   1.981       .  S
Fe354       O357   2.066       .  S
Fe354       O361   2.056   1_455  S
Fe354       O365   2.082   1_455  S
Fe354       O370   2.072       .  S
Fe354       O364   1.981   1_455  S
Fe355       O373   2.078       .  S
Fe355       O360   2.064       .  S
Fe355       O367   2.077       .  S
Fe355       O356   2.059       .  S
Fe355       O364   1.979   1_445  S
O356        C363   1.267   1_455  A
O357        C371   1.268   1_565  A
O358        C363   1.269       .  A
O359        C362   1.270       .  A
O360        C372   1.268       .  A
O361        C374   1.266       .  A
C362        C434   1.476       .  S
C362        O367   1.273   1_655  A
C363        C461   1.481       .  S
O365        C368   1.272       .  A
O366        C368   1.270       .  A
C368        C509   1.478       .  S
O369        C374   1.268       .  A
O370        C372   1.271   1_565  A
C371        C410   1.474       .  S
C371        O373   1.270       .  A
C372        C386   1.472       .  S
C374        C485   1.469       .  S
C375        C376   1.399       .  A
C375        C380   1.404       .  A
C375        H391   1.084       .  S
C376        C377   1.403       .  A
C376        H392   1.083       .  S
C377        C387   1.404       .  A
C377        C378   1.412       .  A
C378        C384   1.412   1_545  A
C378        C379   1.412       .  A
C379        C381   1.410   1_545  A
C379        C380   1.407       .  A
C380        C388   1.401       .  A
C381        C390   1.406       .  A
C381        C382   1.404       .  A
C382        C383   1.401       .  A
C382        H393   1.083       .  S
C383        C384   1.404       .  A
C383        H394   1.084       .  S
C384        C385   1.404       .  A
C385        C386   1.404   1_565  A
C385        H395   1.085       .  S
C386        C387   1.405       .  A
C387        H396   1.084       .  S
C388        C389   1.418       .  A
C388        H397   1.082       .  S
C389        C390   1.414   1_545  A
C390        H398   1.083       .  S
C399        C400   1.403       .  A
C399        C404   1.405       .  A
C399        H415   1.084       .  S
C400        C401   1.406       .  A
C400        H416   1.083       .  S
C401        C411   1.409       .  A
C401        C402   1.411   1_545  A
C402        C408   1.413       .  A
C402        C403   1.414       .  A
C403        C405   1.406       .  A
C403        C404   1.411   1_565  A
C404        C412   1.410       .  A
C405        C414   1.399       .  A
C405        C406   1.404       .  A
C406        C407   1.398       .  A
C406        H417   1.083       .  S
C407        C408   1.402       .  A
C407        H418   1.084       .  S
C408        C409   1.403       .  A
C409        C410   1.402   1_565  A
C409        H419   1.085       .  S
C410        C411   1.407       .  A
C411        H420   1.084       .  S
C412        C413   1.415   1_545  A
C412        H421   1.084       .  S
C413        C414   1.420       .  A
C414        H422   1.082       .  S
C423        C424   1.400       .  A
C423        C428   1.404       .  A
C423        H439   1.083       .  S
C424        C425   1.404       .  A
C424        H440   1.084       .  S
C425        C435   1.403       .  A
C425        C426   1.411   1_455  A
C426        C432   1.412       .  A
C426        C427   1.411       .  A
C427        C429   1.407       .  A
C427        C428   1.411   1_655  A
C428        C436   1.406       .  A
C429        C438   1.397       .  A
C429        C430   1.403       .  A
C430        C431   1.398       .  A
C430        H441   1.084       .  S
C431        C432   1.403       .  A
C431        H442   1.083       .  S
C432        C433   1.402       .  A
C433        C434   1.405       .  A
C433        H443   1.084       .  S
C434        C435   1.407   1_655  A
C435        H444   1.085       .  S
C436        C437   1.413   1_455  A
C436        H445   1.081       .  S
C437        C438   1.415       .  A
C438        H446   1.084       .  S
C447        C448   1.397       .  A
C447        C452   1.402       .  A
C447        H463   1.084       .  S
C448        C449   1.403       .  A
C448        H464   1.083       .  S
C449        C459   1.398       .  A
C449        C450   1.407       .  A
C450        C456   1.411   1_455  A
C450        C451   1.414       .  A
C451        C453   1.411   1_455  A
C451        C452   1.412       .  A
C452        C460   1.401       .  A
C453        C462   1.408       .  A
C453        C454   1.405       .  A
C454        C455   1.403       .  A
C454        H465   1.083       .  S
C455        C456   1.405       .  A
C455        H466   1.084       .  S
C456        C457   1.410       .  A
C457        C458   1.416   1_655  A
C457        H467   1.081       .  S
C458        C459   1.415       .  A
C459        H468   1.083       .  S
C460        C461   1.405   1_455  A
C460        H469   1.085       .  S
C461        C462   1.409       .  A
C462        H470   1.084       .  S
C471        C472   1.404       .  A
C471        C476   1.406       .  A
C471        H487   1.083       .  S
C472        C473   1.405       .  A
C472        H488   1.084       .  S
C473        C483   1.410       .  A
C473        C474   1.411       .  A
C474        C480   1.406       .  A
C474        C475   1.412       .  A
C475        C477   1.413       .  A
C475        C476   1.411       .  A
C476        C484   1.408       .  A
C477        C486   1.399       .  A
C477        C478   1.401       .  A
C478        C479   1.396       .  A
C478        H489   1.084       .  S
C479        C480   1.404       .  A
C479        H490   1.084       .  S
C480        C481   1.397       .  A
C481        C482   1.419       .  A
C481        H491   1.082       .  S
C482        C483   1.415       .  A
C483        H492   1.084       .  S
C484        C485   1.407       .  A
C484        H493   1.084       .  S
C485        C486   1.400       .  A
C486        H494   1.085       .  S
C495        C496   1.395       .  A
C495        C500   1.402       .  A
C495        H511   1.083       .  S
C496        C497   1.402       .  A
C496        H512   1.084       .  S
C497        C507   1.396       .  A
C497        C498   1.409       .  A
C498        C504   1.410       .  A
C498        C499   1.411       .  A
C499        C501   1.412       .  A
C499        C500   1.411       .  A
C500        C508   1.397       .  A
C501        C510   1.407       .  A
C501        C502   1.405       .  A
C502        C503   1.402       .  A
C502        H513   1.084       .  S
C503        C504   1.405       .  A
C503        H514   1.084       .  S
C504        C505   1.406       .  A
C505        C506   1.416       .  A
C505        H515   1.081       .  S
C506        C507   1.412       .  A
C507        H516   1.084       .  S
C508        C509   1.404       .  A
C508        H517   1.085       .  S
C509        C510   1.409       .  A
C510        H518   1.084       .  S
C519        C520   1.401       .  A
C519        C524   1.404       .  A
C519        H535   1.083       .  S
C520        C521   1.404       .  A
C520        H536   1.084       .  S
C521        C531   1.405       .  A
C522        C528   1.408   1_554  A
C522        C523   1.415       .  A
C523        C525   1.412   1_554  A
C524        C532   1.406       .  A
C525        C534   1.409       .  A
C525        C526   1.404       .  A
C526        C527   1.401       .  A
C526        H537   1.083       .  S
C527        C528   1.405       .  A
C527        H538   1.083       .  S
C528        C529   1.405       .  A
C529        H539   1.083       .  S
C530        C531   1.415       .  A
C531        H540   1.084       .  S
C532        C533   1.409       .  A
C532        H541   1.084       .  S
C534        H542   1.083       .  S
C543        C544   1.399       .  A
C543        C548   1.403       .  A
C543        H559   1.083       .  S
C544        C545   1.404       .  A
C544        H560   1.084       .  S
C545        C555   1.404       .  A
C546        C552   1.407       .  A
C546        C547   1.415       .  A
C547        C549   1.410       .  A
C548        C556   1.404       .  A
C549        C558   1.405       .  A
C549        C550   1.403       .  A
C550        C551   1.399       .  A
C550        H561   1.084       .  S
C551        C552   1.404       .  A
C551        H562   1.084       .  S
C552        C553   1.403       .  A
C553        H563   1.081       .  S
C554        C555   1.416       .  A
C555        H564   1.081       .  S
C556        C557   1.409       .  A
C556        H565   1.084       .  S
C558        H566   1.082       .  S
C567        C568   1.403       .  A
C567        C572   1.405       .  A
C567        H583   1.083       .  S
C568        C569   1.405       .  A
C568        H584   1.083       .  S
C569        C579   1.411       .  A
C570        C576   1.411       .  A
C570        C571   1.416       .  A
C571        C573   1.409       .  A
C572        C580   1.407       .  A
C573        C582   1.406       .  A
C573        C574   1.404       .  A
C574        C575   1.400       .  A
C574        H585   1.084       .  S
C575        C576   1.403       .  A
C575        H586   1.083       .  S
C576        C577   1.405       .  A
C577        C578   1.408       .  A
C577        H587   1.084       .  S
C579        H588   1.084       .  S
C580        H589   1.084       .  S
C581        C582   1.417       .  A
C582        H590   1.079       .  S
C591        C592   1.400       .  A
C591        C596   1.404       .  A
C591        H607   1.084       .  S
C592        C593   1.404       .  A
C592        H608   1.083       .  S
C593        C603   1.404       .  A
C594        C600   1.411       .  A
C594        C595   1.415       .  A
C595        C597   1.408       .  A
C596        C604   1.406       .  A
C597        C606   1.406       .  A
C597        C598   1.405       .  A
C598        C599   1.402       .  A
C598        H609   1.084       .  S
C599        C600   1.405       .  A
C599        H610   1.083       .  S
C600        C601   1.407       .  A
C601        C602   1.412       .  A
C601        H611   1.083       .  S
C603        H612   1.084       .  S
C604        H613   1.079       .  S
C605        C606   1.419       .  A
C606        H614   1.082       .  S
C615        C616   1.401       .  A
C615        C620   1.405       .  A
C615        H631   1.083       .  S
C616        C617   1.404       .  A
C616        H632   1.084       .  S
C617        C627   1.403       .  A
C618        C624   1.410       .  A
C618        C619   1.414   1_556  A
C619        C621   1.408   1_554  A
C620        C628   1.408       .  A
C621        C630   1.401       .  A
C621        C622   1.403       .  A
C622        C623   1.398       .  A
C622        H633   1.084       .  S
C623        C624   1.403       .  A
C623        H634   1.083       .  S
C624        C625   1.403       .  A
C625        H635   1.082       .  S
C626        C627   1.417       .  A
C627        H636   1.083       .  S
C628        C629   1.413       .  A
C628        H637   1.083       .  S
C630        H638   1.082       .  S
C639        C640   1.402       .  A
C639        C644   1.405       .  A
C639        H655   1.083       .  S
C640        C641   1.405       .  A
C640        H656   1.083       .  S
C641        C651   1.408       .  A
C642        C648   1.411       .  A
C642        C643   1.414       .  A
C643        C645   1.409       .  A
C644        C652   1.406       .  A
C645        C654   1.404       .  A
C645        C646   1.404       .  A
C646        C647   1.399       .  A
C646        H657   1.084       .  S
C647        C648   1.403       .  A
C647        H658   1.083       .  S
C648        C649   1.404       .  A
C649        H659   1.084       .  S
C650        C651   1.412       .  A
C651        H660   1.083       .  S
C652        C653   1.419       .  A
C652        H661   1.083       .  S
C654        H662   1.080       .  S
