geometry optimzed in LAMMPS
_audit_creation_date              2020-11-30 
_audit_creation_method            'lammps2cif' 
_symmetry_space_group_name_H-M    'P1' 
_symmetry_Int_Tables_number       1 
_symmetry_cell_setting            triclinic 
loop_ 
_symmetry_equiv_pos_as_xyz 
  x,y,z 
_cell_length_a                    32.70002006 
_cell_length_b                    32.47174178493647 
_cell_length_c                    32.452392633265966 
_cell_angle_alpha                 90.1065293273525 
_cell_angle_beta                  89.80490907731686 
_cell_angle_gamma                 120.38685565020593 
loop_ 
_atom_site_label 
_atom_site_type_symbol 
_atom_site_fract_x 
_atom_site_fract_y 
_atom_site_fract_z 
_atom_site_charge 
Fe1        Fe  0.12998329  0.36683490  0.37439883     1.65800
Fe2        Fe  0.23553309  0.36804055  0.37515112     1.73200
Fe3        Fe  0.13053660  0.26136536  0.37348087     1.54400
O4          O  0.08320777  0.25570618  0.41867226    -0.82200
O5          O  0.24127223  0.32634996  0.33030412    -0.80500
O6          O  0.08366936  0.32439284  0.41986886    -0.84700
O7          O  0.08356824  0.32452711  0.32859606    -0.79500
O8          O  0.17176581  0.25671906  0.41949009    -0.81300
O9          O  0.24001017  0.41336235  0.32840792    -0.84100
C10         C  0.07028124  0.28349311  0.31365888     0.96700
C11         C  0.06897033  0.28252982  0.43336695     1.04100
O12         O  0.16533182  0.33206181  0.37439271    -1.13000
O13         O  0.23999178  0.41538585  0.42025338    -0.75500
O14         O  0.17111817  0.41360679  0.42060687    -0.79000
O15         O  0.08527640  0.25682674  0.32698064    -0.79700
C16         C  0.21258582  0.42900070  0.43455800     0.95600
O17         O  0.17203161  0.41371558  0.32867862    -0.77600
O18         O  0.23950062  0.32617375  0.42137008    -0.82800
C19         C  0.21511857  0.28494439  0.31567434     0.98200
C20         C  0.21286437  0.28368162  0.43417142     1.04100
O21         O  0.17308975  0.25757297  0.32832249    -0.78500
C22         C  0.21307999  0.42745958  0.31415710     1.02400
Fe23       Fe  0.36971581  0.13425357  0.12554890     1.65800
Fe24       Fe  0.26492166  0.13381733  0.12322181     1.73200
Fe25       Fe  0.36992437  0.24003361  0.12639599     1.54400
O26         O  0.41296613  0.24357837  0.17417781    -0.82200
O27         O  0.26163991  0.17841518  0.07954894    -0.80500
O28         O  0.41753822  0.17763324  0.16963716    -0.84700
O29         O  0.41443009  0.17531310  0.07849190    -0.79500
O30         O  0.32550066  0.24334472  0.17000838    -0.81300
O31         O  0.26231842  0.09071052  0.07552332    -0.84100
C32         C  0.43084539  0.21804050  0.06638864     0.96700
C33         C  0.42938336  0.21762272  0.18596479     1.04100
O34         O  0.33487571  0.16940268  0.12512539    -1.13000
O35         O  0.25855821  0.08440179  0.16684450    -0.75500
O36         O  0.32857257  0.08901180  0.17257536    -0.79000
O37         O  0.41872799  0.24582540  0.08270901    -0.79700
C38         C  0.28569526  0.07204794  0.18369534     0.95600
O39         O  0.32719141  0.08573402  0.08146415    -0.77600
O40         O  0.25906537  0.17263349  0.17059261    -0.82800
C41         C  0.28957073  0.21984654  0.06532635     0.98200
C42         C  0.28436606  0.21479089  0.18405015     1.04100
O43         O  0.33133049  0.24568763  0.07885436    -0.78500
C44         C  0.28794327  0.07362583  0.06436666     1.02400
C45         C  0.49669088  0.21762879  0.02847839    -0.20800
C46         C  0.46616446  0.23606049  0.03224564    -0.07400
C47         C  0.46981138  0.27035518  0.00321054     0.13500
C48         C  0.00291554  0.28331249  0.47081824    -0.20900
C49         C  0.03328395  0.26458642  0.46728480    -0.07400
C50         C  0.02937126  0.23041236  0.49656462     0.13500
C51         C  0.06141636  0.20952172  0.49569552    -0.24200
H52         H  0.49435703  0.19178912  0.05088354     0.14800
H53         H  0.00542389  0.30914634  0.44832465     0.14800
C54         C  0.43773860  0.29120814  0.00470296    -0.24200
H55         H  0.05511702  0.18575518  0.52247822     0.05000
H56         H  0.09909147  0.23859224  0.49663350     0.08200
H57         H  0.05480215  0.18774039  0.46745348     0.08200
H58         H  0.44460554  0.31282665  0.03308710     0.08200
H59         H  0.40005912  0.26213722  0.00398168     0.08200
H60         H  0.44378404  0.31512684  0.97809336     0.05000
C61         C  0.99325596  0.26779777  0.28544081    -0.20800
C62         C  0.03471128  0.26556125  0.28007935    -0.07400
C63         C  0.04107378  0.24620920  0.24314625     0.13500
C64         C  0.00558969  0.22916068  0.21278869    -0.20900
C65         C  0.46492415  0.23501619  0.21934097    -0.07400
C66         C  0.45966553  0.25573163  0.25587205     0.13500
C67         C  0.41622660  0.25951331  0.26380258    -0.24200
H68         H  0.98827049  0.28230385  0.31388698     0.14800
H69         H  0.50911098  0.21468485  0.18616935     0.14800
C70         C  0.08582120  0.24492959  0.23502575    -0.24200
H71         H  0.41671751  0.27383919  0.29502403     0.05000
H72         H  0.38387281  0.22368635  0.26141348     0.08200
H73         H  0.41444972  0.28402656  0.24109352     0.08200
H74         H  0.08903212  0.22124080  0.25770866     0.08200
H75         H  0.11709658  0.28150176  0.23745500     0.08200
H76         H  0.08598086  0.23103517  0.20375435     0.05000
C77         C  0.22460721  0.50229807  0.28317782    -0.20800
C78         C  0.23077260  0.46267617  0.28004465    -0.07400
C79         C  0.25387779  0.45795524  0.24491668     0.13500
C80         C  0.28098494  0.00175726  0.21899514    -0.20900
C81         C  0.26639673  0.03565863  0.21715944    -0.07400
C82         C  0.23398268  0.03397426  0.24717772     0.13500
C83         C  0.21798396  0.07016349  0.24797726    -0.24200
H84         H  0.20685117  0.50580639  0.31008580     0.14800
H85         H  0.30529600  0.00256409  0.19577395     0.14800
C86         C  0.25816424  0.41427940  0.23835877    -0.24200
H87         H  0.19530862  0.06535384  0.27520344     0.05000
H88         H  0.19678505  0.06637466  0.22011866     0.08200
H89         H  0.24928233  0.10681286  0.24934247     0.08200
H90         H  0.22243074  0.38171509  0.23924511     0.08200
H91         H  0.28073022  0.41193591  0.26259609     0.08200
H92         H  0.27453200  0.41519581  0.20806848     0.05000
C93         C  0.27740005  0.50334996  0.46626419    -0.20800
C94         C  0.23042527  0.46507194  0.46834632    -0.07400
C95         C  0.20206185  0.46200309  0.50262549     0.13500
C96         C  0.22166574  0.01379845  0.02136713    -0.20900
C97         C  0.27023980  0.03716376  0.03087576    -0.07400
C98         C  0.29977676  0.02458920  0.00860132     0.13500
C99         C  0.35255226  0.04866046  0.01569832    -0.24200
H100        H  0.29908030  0.50604068  0.43989582     0.14800
H101        H  0.19870272  0.02289475  0.03832876     0.14800
C102        C  0.15205447  0.42083896  0.50764690    -0.24200
H103        H  0.36996066  0.03597610  0.99375698     0.05000
H104        H  0.35973257  0.04065055  0.04718564     0.08200
H105        H  0.36911510  0.08783246  0.01145867     0.08200
H106        H  0.15184886  0.38654040  0.50672730     0.08200
H107        H  0.12924010  0.42141406  0.48270171     0.08200
H108        H  0.13622059  0.42261489  0.53745699     0.05000
C109        C  0.26969853  0.30135557  0.99323773    -0.20800
C110        C  0.23095424  0.26521262  0.46749948    -0.06600
C111        C  0.21410265  0.21582808  0.47361856     0.13500
C112        C  0.23342670  0.20143786  0.50531998    -0.20900
C113        C  0.27224909  0.23806509  0.03144368    -0.07400
C114        C  0.28941557  0.28735990  0.02482107     0.13500
C115        C  0.32760581  0.32567187  0.05127516    -0.24200
H116        H  0.28262942  0.33907285  0.98870330     0.14800
H117        H  0.22344040  0.16691090  0.01012248     0.14800
C118        C  0.17677870  0.17775153  0.44638495    -0.24200
H119        H  0.33463296  0.36184495  0.04288423     0.05000
H120        H  0.36133684  0.32571738  0.04716068     0.08200
H121        H  0.31661419  0.31945504  0.08414890     0.08200
H122        H  0.18841000  0.18486370  0.41368441     0.08200
H123        H  0.14261875  0.17688227  0.45023477     0.08200
H124        H  0.17028283  0.14162762  0.45420894     0.05000
C125        C  0.20168721  0.23394812  0.25429709    -0.20800
C126        C  0.23397507  0.26775727  0.28224963    -0.07400
C127        C  0.28290309  0.28347093  0.27788706     0.13500
C128        C  0.29785348  0.26527519  0.24567134    -0.20900
C129        C  0.26555740  0.23157772  0.21771320    -0.07400
C130        C  0.21667528  0.21583297  0.22204714     0.13500
C131        C  0.18002971  0.18131008  0.19217907    -0.24200
H132        H  0.16433439  0.22190470  0.25739536     0.14800
H133        H  0.33519622  0.27727772  0.24247756     0.14800
C134        C  0.31974480  0.31825921  0.30748270    -0.24200
H135        H  0.14426059  0.17584855  0.19878535     0.05000
H136        H  0.17734239  0.14592499  0.19438398     0.08200
H137        H  0.18979978  0.19532059  0.16027320     0.08200
H138        H  0.31022728  0.30452061  0.33948269     0.08200
H139        H  0.32241574  0.35362221  0.30505869     0.08200
H140        H  0.35548820  0.32370724  0.30075742     0.05000
Fe141      Fe  0.13263187  0.36945050  0.87603630     1.65800
Fe142      Fe  0.23804330  0.37005577  0.87520282     1.73200
Fe143      Fe  0.13269192  0.26379642  0.87447375     1.54400
O144        O  0.08545207  0.25795238  0.91959651    -0.82200
O145        O  0.24282004  0.32870929  0.82930714    -0.80500
O146        O  0.08545125  0.32630546  0.92102251    -0.84700
O147        O  0.08648141  0.32792660  0.82963856    -0.79500
O148        O  0.17366477  0.25914461  0.92053036    -0.81300
O149        O  0.24277725  0.41672227  0.82991088    -0.84100
C150        C  0.07278831  0.28668305  0.81482874     0.96700
C151        C  0.07080073  0.28435655  0.93429798     1.04100
O152        O  0.16777918  0.33446223  0.87519990    -1.13000
O153        O  0.24298921  0.41649290  0.92106407    -0.75500
O154        O  0.17383433  0.41457199  0.92289745    -0.79000
O155        O  0.08750537  0.25979204  0.82821571    -0.79700
C156        C  0.21552525  0.42957413  0.93608910     0.95600
O157        O  0.17529334  0.41786782  0.83112463    -0.77600
O158        O  0.24238104  0.32764537  0.92038713    -0.82800
C159        C  0.21656122  0.28678184  0.81567073     0.98200
C160        C  0.21529473  0.28579835  0.93419327     1.04100
O161        O  0.17502303  0.25947888  0.82940290    -0.78500
C162        C  0.21640794  0.43188707  0.81655406     1.02400
Fe163      Fe  0.36895113  0.13242560  0.62517553     1.65800
Fe164      Fe  0.26339191  0.13122382  0.62421598     1.73200
Fe165      Fe  0.36827711  0.23771868  0.62598732     1.54400
O166        O  0.41162169  0.24181196  0.67381066    -0.82200
O167        O  0.25940440  0.17471568  0.57935299    -0.80500
O168        O  0.41660028  0.17600052  0.66964498    -0.84700
O169        O  0.41391502  0.17368772  0.57836077    -0.79500
O170        O  0.32420657  0.24150053  0.66976613    -0.81300
O171        O  0.25966707  0.08627606  0.57759806    -0.84100
C172        C  0.42997452  0.21627695  0.56612783     0.96700
C173        C  0.42821256  0.21606684  0.68582939     1.04100
O174        O  0.33354106  0.16710668  0.62510140    -1.13000
O175        O  0.25848596  0.08357896  0.66911977    -0.75500
O176        O  0.32807167  0.08687524  0.67216969    -0.79000
O177        O  0.41719203  0.24368179  0.58217744    -0.79700
C178        C  0.28594863  0.07101328  0.68500771     0.95600
O179        O  0.32665303  0.08433658  0.58036722    -0.77600
O180        O  0.25767619  0.17110027  0.67086143    -0.82800
C181        C  0.28715448  0.21621206  0.56494689     0.98200
C182        C  0.28315115  0.21330876  0.68411760     1.04100
O183        O  0.32892999  0.24232189  0.57846368    -0.78500
C184        C  0.28625857  0.07097880  0.56488200     1.02400
C185        C  0.49664885  0.21669448  0.52863431    -0.20800
C186        C  0.46559741  0.23456357  0.53213765    -0.07400
C187        C  0.46884715  0.26843114  0.50283053     0.13500
C188        C  0.00248566  0.28222700  0.97039135    -0.20900
C189        C  0.03449372  0.26543401  0.96775809    -0.07400
C190        C  0.03102698  0.23142714  0.99705324     0.13500
C191        C  0.06457067  0.21229426  0.99691283    -0.24200
H192        H  0.49448670  0.19098000  0.55109441     0.14800
H193        H  0.00450968  0.30770809  0.94774619     0.14800
C194        C  0.43559127  0.28789559  0.50353906    -0.24200
H195        H  0.05847741  0.18856319  0.02367430     0.05000
H196        H  0.10179506  0.24228402  0.99844202     0.08200
H197        H  0.05935863  0.19089947  0.96865987     0.08200
H198        H  0.44151622  0.30957989  0.53172702     0.08200
H199        H  0.39825728  0.25805231  0.50263023     0.08200
H200        H  0.44126247  0.31137278  0.47667860     0.05000
C201        C  0.99686030  0.27344179  0.78588612    -0.20800
C202        C  0.03696101  0.26862173  0.78138563    -0.07400
C203        C  0.04136803  0.24598694  0.74569769     0.13500
C204        C  0.00589416  0.22937965  0.71534164    -0.20900
C205        C  0.46386425  0.23409096  0.71919675    -0.07400
C206        C  0.45703503  0.25218686  0.75666721     0.13500
C207        C  0.41157582  0.25174421  0.76567210    -0.24200
H208        H  0.99302718  0.28991975  0.81359388     0.14800
H209        H  0.51128681  0.21980927  0.68411013     0.14800
C210        C  0.08394837  0.24042082  0.73885468    -0.24200
H211        H  0.41122587  0.26473925  0.79728942     0.05000
H212        H  0.38098293  0.21480591  0.76289957     0.08200
H213        H  0.40735464  0.27539384  0.74367998     0.08200
H214        H  0.08499528  0.21650658  0.76265398     0.08200
H215        H  0.11691777  0.27584484  0.74038034     0.08200
H216        H  0.08290122  0.22446951  0.70828613     0.05000
C217        C  0.22611223  0.50615639  0.78485572    -0.20800
C218        C  0.23464000  0.46788483  0.78289600    -0.07400
C219        C  0.26040771  0.46487291  0.74897298     0.13500
C220        C  0.28373041  0.00267794  0.72198450    -0.20900
C221        C  0.26795437  0.03562616  0.71936941    -0.07400
C222        C  0.23569328  0.03399184  0.74954632     0.13500
C223        C  0.22001208  0.07042735  0.75070895    -0.24200
H224        H  0.20690852  0.50883102  0.81104611     0.14800
H225        H  0.30852432  0.00386294  0.69909163     0.14800
C226        C  0.26911854  0.42371543  0.74401294    -0.24200
H227        H  0.19784179  0.06588383  0.77824565     0.05000
H228        H  0.19841528  0.06671487  0.72316708     0.08200
H229        H  0.25149685  0.10698365  0.75182868     0.08200
H230        H  0.23487744  0.38940509  0.74486534     0.08200
H231        H  0.29254031  0.42431713  0.76893953     0.08200
H232        H  0.28678611  0.42546632  0.71423827     0.05000
C233        C  0.27121329  0.51091441  0.96161883    -0.20800
C234        C  0.23342756  0.46479605  0.96983233    -0.07400
C235        C  0.21329801  0.45338556  0.00970329     0.13500
C236        C  0.22103189  0.99817206  0.53244187    -0.20900
C237        C  0.26858125  0.03523002  0.53118852    -0.07400
C238        C  0.29762316  0.03750921  0.49781127     0.13500
C239        C  0.34840135  0.07743190  0.49389327    -0.24200
H240        H  0.28636999  0.51942387  0.93087665     0.14800
H241        H  0.19891891  0.99622547  0.55821883     0.14800
C242        C  0.17421728  0.40359093  0.02016460    -0.24200
H243        H  0.36480416  0.07509476  0.46460827     0.05000
H244        H  0.36983854  0.07574665  0.51954769     0.08200
H245        H  0.35001429  0.11242408  0.49444202     0.08200
H246        H  0.18647611  0.37783693  0.01433764     0.08200
H247        H  0.14257069  0.39381018  0.00095742     0.08200
H248        H  0.16348455  0.40049548  0.05304619     0.05000
C249        C  0.26753218  0.29835091  0.49304738    -0.20800
C250        C  0.23346867  0.26785515  0.96762443    -0.06600
C251        C  0.21696337  0.21862076  0.97377721     0.13500
C252        C  0.23631560  0.20462240  0.00562324    -0.20900
C253        C  0.26969786  0.23457820  0.53107250    -0.07400
C254        C  0.28717615  0.28398059  0.52446337     0.13500
C255        C  0.32566454  0.32213142  0.55081799    -0.24200
H256        H  0.28084044  0.33615109  0.48861079     0.14800
H257        H  0.22023534  0.16366131  0.50978088     0.14800
C258        C  0.18009804  0.18036308  0.94636022    -0.24200
H259        H  0.33287842  0.35839808  0.54254956     0.05000
H260        H  0.35926062  0.32196731  0.54646122     0.08200
H261        H  0.31486201  0.31594807  0.58373819     0.08200
H262        H  0.19193891  0.18769735  0.91372111     0.08200
H263        H  0.14568155  0.17899666  0.95000565     0.08200
H264        H  0.17401080  0.14438658  0.95418051     0.05000
C265        C  0.20165393  0.23314616  0.75581970    -0.20800
C266        C  0.23465134  0.26865941  0.78228173    -0.07400
C267        C  0.28351393  0.28474678  0.77681627     0.13500
C268        C  0.29776936  0.26584806  0.74461567    -0.20900
C269        C  0.26483802  0.23064309  0.71794907    -0.07400
C270        C  0.21590485  0.21392672  0.72384372     0.13500
C271        C  0.17828905  0.17699286  0.69604762    -0.24200
H272        H  0.16428735  0.22051997  0.75993222     0.14800
H273        H  0.33511575  0.27849530  0.74046669     0.14800
C274        C  0.32105708  0.32058058  0.80534875    -0.24200
H275        H  0.14242781  0.17060585  0.70383289     0.05000
H276        H  0.17711760  0.14239901  0.69933238     0.08200
H277        H  0.18588344  0.18923075  0.66352833     0.08200
H278        H  0.31257537  0.30772271  0.83766655     0.08200
H279        H  0.32330442  0.35570775  0.80242704     0.08200
H280        H  0.35671551  0.32614288  0.79801234     0.05000
Fe281      Fe  0.13065159  0.86820824  0.37400564     1.65800
Fe282      Fe  0.23620432  0.86951380  0.37533966     1.73200
Fe283      Fe  0.13134217  0.76290939  0.37330472     1.54400
O284        O  0.08290249  0.75699290  0.41754438    -0.82200
O285        O  0.24197236  0.82953109  0.32901243    -0.80500
O286        O  0.08536561  0.82664846  0.42057298    -0.84700
O287        O  0.08325976  0.82486690  0.32934001    -0.79500
O288        O  0.17118986  0.75830629  0.42045915    -0.81300
O289        O  0.24131759  0.91687614  0.33023512    -0.84100
C290        C  0.07108104  0.78447683  0.31358805     0.96700
C291        C  0.06971396  0.78425235  0.43320852     1.04100
O292        O  0.16604154  0.83354317  0.37423938    -1.13000
O293        O  0.23988117  0.91466843  0.42165233    -0.75500
O294        O  0.17265119  0.91612804  0.41903348    -0.79000
O295        O  0.08728890  0.75849662  0.32590651    -0.79700
C296        C  0.21314588  0.92974874  0.43441566     0.95600
O297        O  0.17190991  0.91395611  0.32719988    -0.77600
O298        O  0.24015145  0.82637892  0.42040860    -0.82800
C299        C  0.21636516  0.78766984  0.31513346     0.98200
C300        C  0.21269259  0.78466861  0.43446141     1.04100
O301        O  0.17507566  0.75943984  0.32901416    -0.78500
C302        C  0.21401684  0.92961829  0.31436878     1.02400
Fe303      Fe  0.36841798  0.63209510  0.12497084     1.65800
Fe304      Fe  0.26276828  0.63090755  0.12508557     1.73200
Fe305      Fe  0.36774081  0.73745034  0.12587882     1.54400
O306        O  0.41449172  0.74227778  0.17106918    -0.82200
O307        O  0.25829098  0.67197469  0.07864631    -0.80500
O308        O  0.41374976  0.67325436  0.17163952    -0.84700
O309        O  0.41595048  0.67583625  0.08035370    -0.79500
O310        O  0.32645563  0.74142740  0.17195073    -0.81300
O311        O  0.25805360  0.58302355  0.08061559    -0.84100
C312        C  0.42919083  0.71702897  0.06582513     0.96700
C313        C  0.42838172  0.71506318  0.18534239     1.04100
O314        O  0.33298065  0.66679241  0.12534675    -1.13000
O315        O  0.25846069  0.58581009  0.17161262    -0.75500
O316        O  0.32522875  0.58323131  0.16948603    -0.79000
O317        O  0.41351504  0.74295869  0.07957405    -0.79700
C318        C  0.28445379  0.56999525  0.18452694     0.95600
O319        O  0.32814794  0.58706004  0.07797711    -0.77600
O320        O  0.25751192  0.67344737  0.16959579    -0.82800
C321        C  0.28443142  0.71465523  0.06624867     0.98200
C322        C  0.28419738  0.71475868  0.18431739     1.04100
O323        O  0.32533502  0.74194397  0.08107864    -0.78500
C324        C  0.28603656  0.57067391  0.06543923     1.02400
C325        C  0.49742312  0.71916811  0.02970168    -0.20800
C326        C  0.46517258  0.73567282  0.03209175    -0.07400
C327        C  0.46827557  0.76921879  0.00242419     0.13500
C328        C  0.00346461  0.78441470  0.47095806    -0.20900
C329        C  0.03409509  0.76605439  0.46722332    -0.07400
C330        C  0.03036800  0.73176143  0.49629734     0.13500
C331        C  0.06271530  0.71123340  0.49514636    -0.24200
H332        H  0.49571060  0.69405662  0.05258686     0.14800
H333        H  0.00583274  0.81031137  0.44859678     0.14800
C334        C  0.43443429  0.78799331  0.00218378    -0.24200
H335        H  0.05663246  0.68736881  0.52180448     0.05000
H336        H  0.10031094  0.74049095  0.49607397     0.08200
H337        H  0.05619916  0.68964626  0.46679646     0.08200
H338        H  0.43951004  0.80966876  0.03022075     0.08200
H339        H  0.39730012  0.75780566  0.00078124     0.08200
H340        H  0.44034472  0.81137309  0.97519124     0.05000
C341        C  0.99332065  0.76749823  0.28660577    -0.20800
C342        C  0.03527224  0.76645227  0.28033810    -0.07400
C343        C  0.04198344  0.74844442  0.24278767     0.13500
C344        C  0.00612286  0.73110785  0.21281400    -0.20900
C345        C  0.46406863  0.73315127  0.21874426    -0.07400
C346        C  0.45830926  0.75370859  0.25515418     0.13500
C347        C  0.41443620  0.75686828  0.26249280    -0.24200
H348        H  0.98820485  0.78117228  0.31548253     0.14800
H349        H  0.50940255  0.71430776  0.18570891     0.14800
C350        C  0.08751329  0.74911845  0.23357504    -0.24200
H351        H  0.41459688  0.77159180  0.29345232     0.05000
H352        H  0.38241162  0.72077198  0.26032213     0.08200
H353        H  0.41230569  0.78070218  0.23925264     0.08200
H354        H  0.09199200  0.72558020  0.25550541     0.08200
H355        H  0.11799862  0.78612839  0.23629763     0.08200
H356        H  0.08779413  0.73618211  0.20191936     0.05000
C357        C  0.21736757  0.99873617  0.27803646    -0.20800
C358        C  0.23228554  0.96509714  0.28012970    -0.07400
C359        C  0.26423195  0.96639295  0.24976607     0.13500
C360        C  0.27158825  0.49386606  0.21459761    -0.20900
C361        C  0.26590836  0.53384598  0.21799480    -0.07400
C362        C  0.24185313  0.53793818  0.25274539     0.13500
C363        C  0.23568313  0.58056512  0.25882268    -0.24200
H364        H  0.19307327  0.99799165  0.30123960     0.14800
H365        H  0.28918121  0.49025653  0.18761738     0.14800
C366        C  0.27967840  0.92977395  0.24854946    -0.24200
H367        H  0.21897426  0.57931664  0.28900760     0.05000
H368        H  0.21242786  0.58153224  0.23450285     0.08200
H369        H  0.27076328  0.61393245  0.25778766     0.08200
H370        H  0.24810260  0.89327751  0.24752415     0.08200
H371        H  0.30133487  0.93344957  0.27604293     0.08200
H372        H  0.30174057  0.93419005  0.22096367     0.05000
C373        C  0.27833717  0.00259248  0.46679343    -0.20800
C374        C  0.23079312  0.96553521  0.46805704    -0.07400
C375        C  0.20182551  0.96310164  0.50153841     0.13500
C376        C  0.23096942  0.48882220  0.04035122    -0.20900
C377        C  0.26853299  0.53505068  0.03202871    -0.07400
C378        C  0.28883983  0.54635722  0.99222809     0.13500
C379        C  0.32788468  0.59615908  0.98169564    -0.24200
H380        H  0.30045714  0.00451867  0.44102586     0.14800
H381        H  0.21584827  0.48031439  0.07110926     0.14800
C382        C  0.15131872  0.92269112  0.50580117    -0.24200
H383        H  0.33862371  0.59919749  0.94882367     0.05000
H384        H  0.35956266  0.60604616  0.00089212     0.08200
H385        H  0.31557226  0.62188619  0.98743827     0.08200
H386        H  0.15029500  0.88797660  0.50531822     0.08200
H387        H  0.12943742  0.92381161  0.48027016     0.08200
H388        H  0.13500578  0.92489455  0.53518638     0.05000
C389        C  0.26274646  0.79650445  0.99604325    -0.20800
C390        C  0.23031746  0.76644368  0.46840753    -0.06600
C391        C  0.21065593  0.71709146  0.47716201     0.13500
C392        C  0.23064255  0.70289367  0.50838554    -0.20900
C393        C  0.26607429  0.73294029  0.03315703    -0.07400
C394        C  0.28208964  0.78221711  0.02770357     0.13500
C395        C  0.31861117  0.82026443  0.05549780    -0.24200
H396        H  0.27523967  0.83421468  0.99207234     0.14800
H397        H  0.21774627  0.66201529  0.01093270     0.14800
C398        C  0.16912173  0.67862296  0.45360622    -0.24200
H399        H  0.32443204  0.85623548  0.04807764     0.05000
H400        H  0.35321135  0.82203265  0.05178545     0.08200
H401        H  0.30661766  0.81241189  0.08807176     0.08200
H402        H  0.17768243  0.68162703  0.42021907     0.08200
H403        H  0.13725168  0.68176330  0.45886029     0.08200
H404        H  0.16001895  0.64226349  0.46365697     0.05000
C405        C  0.20230231  0.73594930  0.25419550    -0.20800
C406        C  0.23496913  0.77084079  0.28120968    -0.07400
C407        C  0.28398282  0.78779782  0.27555027     0.13500
C408        C  0.29849280  0.76845752  0.24392506    -0.20900
C409        C  0.26574352  0.73296348  0.21730743    -0.07400
C410        C  0.21686889  0.71722109  0.22211026     0.13500
C411        C  0.17965369  0.68195619  0.19302503    -0.24200
H412        H  0.16492982  0.72340973  0.25798938     0.14800
H413        H  0.33589804  0.78108603  0.24016276     0.14800
C414        C  0.32147601  0.82528797  0.30309087    -0.24200
H415        H  0.14402736  0.67674559  0.19987281     0.05000
H416        H  0.17691393  0.64659896  0.19585739     0.08200
H417        H  0.18883375  0.69515801  0.16084458     0.08200
H418        H  0.31410407  0.81344195  0.33571566     0.08200
H419        H  0.32223601  0.85964793  0.29941794     0.08200
H420        H  0.35746538  0.83201192  0.29535217     0.05000
Fe421      Fe  0.13081692  0.86761417  0.87488259     1.65800
Fe422      Fe  0.23544383  0.86743343  0.87719516     1.73200
Fe423      Fe  0.13000252  0.76153288  0.87438625     1.54400
O424        O  0.08162539  0.75632352  0.91823347    -0.82200
O425        O  0.24102545  0.82748013  0.83066653    -0.80500
O426        O  0.08560443  0.82668066  0.92182419    -0.84700
O427        O  0.08287409  0.82441493  0.83069771    -0.79500
O428        O  0.16889632  0.75587705  0.92168323    -0.81300
O429        O  0.24183215  0.91594976  0.83264098    -0.84100
C430        C  0.07050507  0.78406685  0.81485034     0.96700
C431        C  0.06919196  0.78403323  0.93418037     1.04100
O432        O  0.16540228  0.83217367  0.87543356    -1.13000
O433        O  0.23894256  0.91201821  0.92397843    -0.75500
O434        O  0.17341727  0.91591355  0.91904485    -0.79000
O435        O  0.08657801  0.75792408  0.82695128    -0.79700
C436        C  0.21316415  0.92878610  0.93548623     0.95600
O437        O  0.17241708  0.91283477  0.82795742    -0.77600
O438        O  0.23834565  0.82348884  0.92182254    -0.82800
C439        C  0.21533850  0.78554966  0.81687785     0.98200
C440        C  0.21042571  0.78184892  0.93568121     1.04100
O441        O  0.17384105  0.75755526  0.83049489    -0.78500
C442        C  0.21499515  0.92896402  0.81621722     1.02400
Fe443      Fe  0.36897708  0.63356257  0.62550508     1.65800
Fe444      Fe  0.26376610  0.63285993  0.62450104     1.73200
Fe445      Fe  0.36896499  0.73932850  0.62661609     1.54400
O446        O  0.41379307  0.74354181  0.67333300    -0.82200
O447        O  0.26039217  0.67525720  0.57849654    -0.80500
O448        O  0.41580785  0.67603338  0.67106176    -0.84700
O449        O  0.41493830  0.67562720  0.57970624    -0.79500
O450        O  0.32628127  0.74314525  0.67168772    -0.81300
O451        O  0.25915123  0.58578574  0.57911308    -0.84100
C452        C  0.42991542  0.71763435  0.56643998     0.96700
C453        C  0.42889945  0.71687116  0.68635106     1.04100
O454        O  0.33392814  0.66859682  0.62549257    -1.13000
O455        O  0.25876043  0.58693813  0.67093267    -0.75500
O456        O  0.32704247  0.58722361  0.67153694    -0.79000
O457        O  0.41632837  0.74482957  0.58151706    -0.79700
C458        C  0.28575256  0.57315400  0.68565130     0.95600
O459        O  0.32745711  0.58642637  0.57956938    -0.77600
O460        O  0.25822279  0.67430002  0.66968801    -0.82800
C461        C  0.28730237  0.71762882  0.56554441     0.98200
C462        C  0.28433418  0.71562583  0.68447758     1.04100
O463        O  0.32832492  0.74441067  0.58037690    -0.78500
C464        C  0.28623659  0.57157991  0.56523049     1.02400
C465        C  0.49735725  0.71867363  0.53014096    -0.20800
C466        C  0.46533145  0.73544370  0.53242702    -0.07400
C467        C  0.46741291  0.76763984  0.50193358     0.13500
C468        C  0.00451142  0.78607145  0.97300185    -0.20900
C469        C  0.03353838  0.76597232  0.96816594    -0.07400
C470        C  0.02797751  0.72980668  0.99596889     0.13500
C471        C  0.05824164  0.70694312  0.99354269    -0.24200
H472        H  0.49599128  0.69416294  0.55349325     0.14800
H473        H  0.00824320  0.81337748  0.95160589     0.14800
C474        C  0.43282192  0.78546224  0.50123194    -0.24200
H475        H  0.05082115  0.68167173  0.01936181     0.05000
H476        H  0.09634872  0.73479629  0.99501607     0.08200
H477        H  0.05089376  0.68627728  0.96451913     0.08200
H478        H  0.43802593  0.80802015  0.52866637     0.08200
H479        H  0.39591163  0.75475701  0.50077643     0.08200
H480        H  0.43774334  0.80762586  0.47357175     0.05000
C481        C  0.99408950  0.76979524  0.78673392    -0.20800
C482        C  0.03496102  0.76646257  0.78148993    -0.07400
C483        C  0.04099111  0.74666218  0.74473011     0.13500
C484        C  0.00572666  0.73025497  0.71435944    -0.20900
C485        C  0.46438645  0.73459951  0.71997237    -0.07400
C486        C  0.45741439  0.75263083  0.75742850     0.13500
C487        C  0.41206803  0.75258330  0.76602556    -0.24200
H488        H  0.98943217  0.78469536  0.81509111     0.14800
H489        H  0.51184679  0.72011294  0.68522898     0.14800
C490        C  0.08519037  0.74428393  0.73670551    -0.24200
H491        H  0.41156814  0.76566382  0.79757440     0.05000
H492        H  0.38132617  0.71574225  0.76316425     0.08200
H493        H  0.40819400  0.77630489  0.74384820     0.08200
H494        H  0.08765393  0.71999319  0.75921760     0.08200
H495        H  0.11695945  0.78049911  0.73934986     0.08200
H496        H  0.08520294  0.73046882  0.70536973     0.05000
C497        C  0.21901806  0.99863567  0.78031469    -0.20800
C498        C  0.23429453  0.96528462  0.78261488    -0.07400
C499        C  0.26751913  0.96769123  0.75307795     0.13500
C500        C  0.27689867  0.50007462  0.71818556    -0.20900
C501        C  0.26803904  0.53805285  0.71992255    -0.07400
C502        C  0.24266871  0.54141760  0.75397858     0.13500
C503        C  0.23441816  0.58288473  0.75877144    -0.24200
H504        H  0.19431865  0.99753025  0.80327356     0.14800
H505        H  0.29617785  0.49743629  0.69203649     0.14800
C506        C  0.28506593  0.93272452  0.75312366    -0.24200
H507        H  0.21668928  0.58129461  0.78847333     0.05000
H508        H  0.21132110  0.58256852  0.73367204     0.08200
H509        H  0.26884591  0.61701299  0.75795544     0.08200
H510        H  0.25454827  0.89561538  0.75174691     0.08200
H511        H  0.30612634  0.93745927  0.78130566     0.08200
H512        H  0.30837528  0.93805069  0.72625707     0.05000
C513        C  0.27975665  0.98910365  0.97814450    -0.20800
C514        C  0.23111952  0.96562485  0.96871547    -0.07400
C515        C  0.20166879  0.97844544  0.99084344     0.13500
C516        C  0.22132459  0.49725864  0.53353178    -0.20900
C517        C  0.26831628  0.53550255  0.53145687    -0.07400
C518        C  0.29659043  0.53869451  0.49709032     0.13500
C519        C  0.34635045  0.58021974  0.49182296    -0.24200
H520        H  0.30272209  0.97999945  0.96119301     0.14800
H521        H  0.19964738  0.49461786  0.55988655     0.14800
C522        C  0.14898484  0.95491008  0.98346751    -0.24200
H523        H  0.36212897  0.57853507  0.46195178     0.05000
H524        H  0.36947333  0.58010727  0.51669576     0.08200
H525        H  0.34607865  0.61427879  0.49268096     0.08200
H526        H  0.13195777  0.91572043  0.98786744     0.08200
H527        H  0.14220164  0.96298408  0.95185789     0.08200
H528        H  0.13170809  0.96800582  0.00514324     0.05000
C529        C  0.26907912  0.79968621  0.49203178    -0.20800
C530        C  0.22747749  0.76336264  0.96958384    -0.06600
C531        C  0.21085750  0.71405551  0.97543375     0.13500
C532        C  0.23033374  0.69973973  0.00699279    -0.20900
C533        C  0.26950376  0.73608865  0.53192147    -0.07400
C534        C  0.28872955  0.78549530  0.52360202     0.13500
C535        C  0.32915764  0.82397241  0.54817213    -0.24200
H536        H  0.28410694  0.83748391  0.48598880     0.14800
H537        H  0.21555426  0.66508639  0.51439404     0.14800
C538        C  0.17369880  0.67609665  0.94800673    -0.24200
H539        H  0.33772507  0.86030750  0.53855915     0.05000
H540        H  0.36164256  0.82178327  0.54352503     0.08200
H541        H  0.31957249  0.82004909  0.58137298     0.08200
H542        H  0.18549708  0.68335510  0.91535867     0.08200
H543        H  0.13953893  0.67527040  0.95171173     0.08200
H544        H  0.16712023  0.63993435  0.95579454     0.05000
C545        C  0.20158433  0.73345665  0.75624186    -0.20800
C546        C  0.23409291  0.76846932  0.78326317    -0.07400
C547        C  0.28314640  0.78544571  0.77784526     0.13500
C548        C  0.29801940  0.76742819  0.74540459    -0.20900
C549        C  0.26552640  0.73249942  0.71827660    -0.07400
C550        C  0.21642933  0.71531948  0.72387823     0.13500
C551        C  0.17915718  0.67893288  0.69548311    -0.24200
H552        H  0.16411733  0.72038921  0.76022097     0.14800
H553        H  0.33549258  0.78054555  0.74146016     0.14800
C554        C  0.32026724  0.82136922  0.80662621    -0.24200
H555        H  0.14317598  0.67228638  0.70313946     0.05000
H556        H  0.17798697  0.64429230  0.69823957     0.08200
H557        H  0.18705306  0.69188317  0.66316610     0.08200
H558        H  0.31187137  0.80813582  0.83884447     0.08200
H559        H  0.32184195  0.85621235  0.80401711     0.08200
H560        H  0.35619919  0.82769960  0.79925192     0.05000
Fe561      Fe  0.63084465  0.36813098  0.37464498     1.65800
Fe562      Fe  0.73622337  0.36890677  0.37467426     1.73200
Fe563      Fe  0.63112287  0.26255250  0.37342758     1.54400
O564        O  0.58344424  0.25691099  0.41837005    -0.82200
O565        O  0.74169535  0.32767106  0.32896229    -0.80500
O566        O  0.58509388  0.32615761  0.42085855    -0.84700
O567        O  0.58381844  0.32555300  0.32968756    -0.79500
O568        O  0.67174407  0.25808950  0.41994305    -0.81300
O569        O  0.74076471  0.41515509  0.32883240    -0.84100
C570        C  0.57091263  0.28485893  0.31428069     0.96700
C571        C  0.56983772  0.28394523  0.43378381     1.04100
O572        O  0.66604503  0.33319948  0.37422030    -1.13000
O573        O  0.74066134  0.41534817  0.42048345    -0.75500
O574        O  0.67271878  0.41529465  0.41987233    -0.79000
O575        O  0.58639594  0.25835063  0.32684326    -0.79700
C576        C  0.71376049  0.42983462  0.43428989     0.95600
O577        O  0.67234013  0.41460953  0.32841203    -0.77600
O578        O  0.74024790  0.32662393  0.42034349    -0.82800
C579        C  0.71555053  0.28591456  0.31490386     0.98200
C580        C  0.71304091  0.28480239  0.43425026     1.04100
O581        O  0.67386989  0.25839886  0.32833773    -0.78500
C582        C  0.71371229  0.42897656  0.31434255     1.02400
Fe583      Fe  0.86804363  0.13067479  0.12434969     1.65800
Fe584      Fe  0.76268225  0.13030610  0.12388360     1.73200
Fe585      Fe  0.86800889  0.23639200  0.12531718     1.54400
O586        O  0.91366841  0.24050263  0.17135776    -0.82200
O587        O  0.75851637  0.17268837  0.07832933    -0.80500
O588        O  0.91469359  0.17242812  0.17005369    -0.84700
O589        O  0.91454399  0.17305812  0.07874411    -0.79500
O590        O  0.82584220  0.24046420  0.17092408    -0.81300
O591        O  0.75827411  0.08399883  0.07825032    -0.84100
C592        C  0.92886608  0.21474387  0.06492900     0.96700
C593        C  0.92847311  0.21365606  0.18470156     1.04100
O594        O  0.83292017  0.16577624  0.12455264    -1.13000
O595        O  0.75771577  0.08354905  0.16930432    -0.75500
O596        O  0.82566567  0.08341848  0.16993986    -0.79000
O597        O  0.91459931  0.24153812  0.07961849    -0.79700
C598        C  0.78413369  0.06894591  0.18374009     0.95600
O599        O  0.82679829  0.08472866  0.07826280    -0.77600
O600        O  0.75741280  0.17170727  0.16954565    -0.82800
C601        C  0.78537917  0.21495412  0.06525289     0.98200
C602        C  0.78385846  0.21328774  0.18388736     1.04100
O603        O  0.82674227  0.24159552  0.07955147    -0.78500
C604        C  0.78561913  0.07027363  0.06420739     1.02400
C605        C  0.99618420  0.21576447  0.02802524    -0.20800
C606        C  0.96445164  0.23287740  0.03088424    -0.07400
C607        C  0.96745375  0.26633589  0.00122750     0.13500
C608        C  0.50305961  0.28349045  0.47131848    -0.20900
C609        C  0.53417776  0.26566037  0.46782066    -0.07400
C610        C  0.53079364  0.23167043  0.49708899     0.13500
C611        C  0.56368064  0.21179094  0.49624575    -0.24200
H612        H  0.99413456  0.19023720  0.05062898     0.14800
H613        H  0.50515221  0.30916449  0.44885073     0.14800
C614        C  0.93312946  0.28450247  0.00080708    -0.24200
H615        H  0.55788217  0.18820667  0.52305480     0.05000
H616        H  0.60112250  0.24140026  0.49711861     0.08200
H617        H  0.55743293  0.19007244  0.46802564     0.08200
H618        H  0.93793475  0.30626702  0.02871554     0.08200
H619        H  0.89615752  0.25397429  0.99952205     0.08200
H620        H  0.93871698  0.30758131  0.97366327     0.05000
C621        C  0.49505422  0.27183202  0.28611800    -0.20800
C622        C  0.53523145  0.26726888  0.28103104    -0.07400
C623        C  0.54037814  0.24634224  0.24459991     0.13500
C624        C  0.50506281  0.23036054  0.21430701    -0.20900
C625        C  0.96416721  0.23149172  0.21815727    -0.07400
C626        C  0.95782952  0.25082125  0.25507946     0.13500
C627        C  0.91316788  0.25225891  0.26314654    -0.24200
H628        H  0.49103475  0.28750395  0.31426797     0.14800
H629        H  0.01053111  0.21461640  0.18434333     0.14800
C630        C  0.58360719  0.24214292  0.23686926    -0.24200
H631        H  0.91298147  0.26611275  0.29442629     0.05000
H632        H  0.88181453  0.21574891  0.26063015     0.08200
H633        H  0.91015249  0.27608135  0.24048090     0.08200
H634        H  0.58518220  0.21771623  0.25980639     0.08200
H635        H  0.61611165  0.27787212  0.23910246     0.08200
H636        H  0.58299671  0.22749233  0.20576806     0.05000
C637        C  0.72364913  0.50285136  0.28219867    -0.20800
C638        C  0.73149827  0.46418748  0.28017570    -0.07400
C639        C  0.75629933  0.46026486  0.24593968     0.13500
C640        C  0.78144542  0.00000576  0.22001549    -0.20900
C641        C  0.76554616  0.03288078  0.21756054    -0.07400
C642        C  0.73237665  0.03032760  0.24725648     0.13500
C643        C  0.71454943  0.06507253  0.24762267    -0.24200
H644        H  0.70497347  0.50602342  0.30856689     0.14800
H645        H  0.80634234  0.00137252  0.19714333     0.14800
C646        C  0.76380029  0.41833016  0.24102461    -0.24200
H647        H  0.69156663  0.05969676  0.27475332     0.05000
H648        H  0.69300611  0.06013164  0.21972933     0.08200
H649        H  0.74494945  0.10225460  0.24886141     0.08200
H650        H  0.72913881  0.38447417  0.24214340     0.08200
H651        H  0.78704901  0.41843397  0.26588488     0.08200
H652        H  0.78105440  0.41950765  0.21115799     0.05000
C653        C  0.78057107  0.49923061  0.46955482    -0.20800
C654        C  0.73170967  0.46595187  0.46797380    -0.07400
C655        C  0.70162953  0.46806324  0.49843877     0.13500
C656        C  0.72604992  0.99153633  0.03658980    -0.20900
C657        C  0.76823823  0.03507243  0.03052472    -0.07400
C658        C  0.79284166  0.04410157  0.99270560     0.13500
C659        C  0.83658420  0.09164615  0.98400007    -0.24200
H660        H  0.80365521  0.49814616  0.44603973     0.14800
H661        H  0.70745720  0.98485980  0.06576211     0.14800
C662        C  0.64901900  0.43289565  0.49956030    -0.24200
H663        H  0.85005198  0.09333581  0.95221074     0.05000
H664        H  0.86526001  0.09791647  0.00576750     0.08200
H665        H  0.82821421  0.12064998  0.98737879     0.08200
H666        H  0.64249719  0.39586211  0.50054546     0.08200
H667        H  0.63171883  0.43756139  0.47204828     0.08200
H668        H  0.63185648  0.43807378  0.52711099     0.05000
C669        C  0.76340679  0.29728023  0.99561957    -0.20800
C670        C  0.73077924  0.26694837  0.46840469    -0.06600
C671        C  0.70960764  0.21790152  0.47903434     0.13500
C672        C  0.72969380  0.20407163  0.51041717    -0.20900
C673        C  0.76726396  0.23349122  0.03202116    -0.07400
C674        C  0.78265215  0.28269098  0.02724330     0.13500
C675        C  0.81824714  0.32023584  0.05593283    -0.24200
H676        H  0.77550692  0.33497510  0.99228102     0.14800
H677        H  0.72003969  0.16290614  0.00867364     0.14800
C678        C  0.66628505  0.17927669  0.45741935    -0.24200
H679        H  0.82361745  0.35617570  0.04917375     0.05000
H680        H  0.85317016  0.32264855  0.05252138     0.08200
H681        H  0.80562586  0.31129640  0.08827972     0.08200
H682        H  0.67345367  0.17979697  0.42390560     0.08200
H683        H  0.63569591  0.18453802  0.46271692     0.08200
H684        H  0.65588330  0.14311407  0.46906537     0.05000
C685        C  0.70213582  0.23683581  0.25195723    -0.20800
C686        C  0.73410816  0.26841125  0.28135769    -0.07400
C687        C  0.78247594  0.28146975  0.27850561     0.13500
C688        C  0.79728652  0.26282009  0.24645580    -0.20900
C689        C  0.76529109  0.23105396  0.21718855    -0.07400
C690        C  0.71696722  0.21822525  0.21986388     0.13500
C691        C  0.68088357  0.18632876  0.18838864    -0.24200
H692        H  0.66524410  0.22694593  0.25387198     0.14800
H693        H  0.83419355  0.27279977  0.24451610     0.14800
C694        C  0.81865769  0.31365073  0.30977970    -0.24200
H695        H  0.64579176  0.18305272  0.19378622     0.05000
H696        H  0.67569620  0.14985710  0.19000912     0.08200
H697        H  0.69295064  0.20130287  0.15701358     0.08200
H698        H  0.80687987  0.29875547  0.34121279     0.08200
H699        H  0.82353319  0.34999529  0.30811958     0.08200
H700        H  0.85384249  0.31720762  0.30420280     0.05000
Fe701      Fe  0.63100724  0.36853087  0.87429789     1.65800
Fe702      Fe  0.73574199  0.36782520  0.87563409     1.73200
Fe703      Fe  0.63004709  0.26227284  0.87304496     1.54400
O704        O  0.58382213  0.25730050  0.91892171    -0.82200
O705        O  0.74159157  0.32524335  0.83149693    -0.80500
O706        O  0.58365536  0.32568290  0.91924264    -0.84700
O707        O  0.58502889  0.32765134  0.82805977    -0.79500
O708        O  0.67121234  0.25637539  0.91857799    -0.81300
O709        O  0.74123595  0.41352352  0.82873045    -0.84100
C710        C  0.57048893  0.28616546  0.81376632     0.96700
C711        C  0.56939718  0.28409173  0.93329568     1.04100
O712        O  0.66558847  0.33289514  0.87424930    -1.13000
O713        O  0.74035650  0.41556563  0.92001593    -0.75500
O714        O  0.67172098  0.41416677  0.92054629    -0.79000
O715        O  0.58439538  0.25871960  0.82738473    -0.79700
C716        C  0.71338909  0.42991708  0.93382033     0.95600
O717        O  0.67447601  0.41634069  0.82960742    -0.77600
O718        O  0.73839942  0.32606771  0.92261131    -0.82800
C719        C  0.71449466  0.28457952  0.81579133     0.98200
C720        C  0.71160522  0.28327919  0.93457805     1.04100
O721        O  0.67169090  0.25826359  0.82699358    -0.78500
C722        C  0.71543998  0.42940086  0.81516697     1.02400
Fe723      Fe  0.86940817  0.13387303  0.62569291     1.65800
Fe724      Fe  0.76442900  0.13363798  0.62395401     1.73200
Fe725      Fe  0.86993591  0.23983853  0.62689352     1.54400
O726        O  0.91531503  0.24381847  0.67309253    -0.82200
O727        O  0.76137995  0.17654336  0.57859315    -0.80500
O728        O  0.91664312  0.17604295  0.67099372    -0.84700
O729        O  0.91518047  0.17571570  0.57965459    -0.79500
O730        O  0.82758603  0.24327667  0.67262841    -0.81300
O731        O  0.76030370  0.08741068  0.57793927    -0.84100
C732        C  0.93013640  0.21766712  0.56617735     0.96700
C733        C  0.93027062  0.21701869  0.68612402     1.04100
O734        O  0.83460242  0.16914597  0.62552323    -1.13000
O735        O  0.75867029  0.08654519  0.66947867    -0.75500
O736        O  0.82736612  0.08798168  0.67184614    -0.79000
O737        O  0.91671286  0.24501268  0.58127740    -0.79700
C738        C  0.78546685  0.07293320  0.68492031     0.95600
O739        O  0.82771518  0.08651977  0.58019557    -0.77600
O740        O  0.75868164  0.17483652  0.66954434    -0.82800
C741        C  0.78818061  0.21899277  0.56595288     0.98200
C742        C  0.78530370  0.21592911  0.68476008     1.04100
O743        O  0.82910101  0.24569471  0.58104489    -0.78500
C744        C  0.78708052  0.07238709  0.56494548     1.02400
C745        C  0.99551410  0.21625011  0.52822681    -0.20800
C746        C  0.96532318  0.23515051  0.53188720    -0.07400
C747        C  0.96909010  0.26918301  0.50252298     0.13500
C748        C  0.50349672  0.28474726  0.97133807    -0.20900
C749        C  0.53408860  0.26630865  0.96755485    -0.07400
C750        C  0.53073624  0.23240762  0.99692197     0.13500
C751        C  0.56370580  0.21259268  0.99637996    -0.24200
H752        H  0.99299665  0.19041054  0.55071742     0.14800
H753        H  0.50573261  0.31055678  0.94894749     0.14800
C754        C  0.93702590  0.29004857  0.50345464    -0.24200
H755        H  0.55793820  0.18924190  0.02336154     0.05000
H756        H  0.60112236  0.24226520  0.99724653     0.08200
H757        H  0.55757874  0.19065018  0.96833083     0.08200
H758        H  0.94383566  0.31200561  0.53160803     0.08200
H759        H  0.89934720  0.26096239  0.50276434     0.08200
H760        H  0.94312794  0.31364232  0.47658163     0.05000
C761        C  0.49279120  0.26955449  0.78672934    -0.20800
C762        C  0.53481565  0.26863209  0.78049625    -0.07400
C763        C  0.54161557  0.25056521  0.74307993     0.13500
C764        C  0.50598045  0.23334746  0.71298287    -0.20900
C765        C  0.96598751  0.23459216  0.71968646    -0.07400
C766        C  0.96109992  0.25624357  0.75580154     0.13500
C767        C  0.91738026  0.25948753  0.76362672    -0.24200
H768        H  0.48759121  0.28314038  0.81562294     0.14800
H769        H  0.00960318  0.21268697  0.68772404     0.14800
C770        C  0.58690637  0.25063702  0.73432561    -0.24200
H771        H  0.91804405  0.27455682  0.79454104     0.05000
H772        H  0.88539607  0.22330206  0.76203333     0.08200
H773        H  0.91474004  0.28301133  0.74037589     0.08200
H774        H  0.59085452  0.22699690  0.75655680     0.08200
H775        H  0.61763742  0.28750630  0.73703587     0.08200
H776        H  0.58725953  0.23742299  0.70280456     0.05000
C777        C  0.72822286  0.50530517  0.78475481    -0.20800
C778        C  0.73418823  0.46547433  0.78163053    -0.07400
C779        C  0.75770605  0.46098133  0.74670820     0.13500
C780        C  0.78548118  0.00645323  0.72271441    -0.20900
C781        C  0.76704905  0.03707120  0.71886176    -0.07400
C782        C  0.73194579  0.03251427  0.74729911     0.13500
C783        C  0.71190461  0.06539518  0.74652966    -0.24200
H784        H  0.71048224  0.50891775  0.81163045     0.14800
H785        H  0.81218795  0.00961579  0.70100243     0.14800
C786        C  0.76255961  0.41762336  0.74033479    -0.24200
H787        H  0.68746115  0.05866212  0.77282115     0.05000
H788        H  0.69134571  0.05981605  0.71786173     0.08200
H789        H  0.74110029  0.10313329  0.74849242     0.08200
H790        H  0.72701892  0.38480937  0.74131292     0.08200
H791        H  0.78539650  0.41577331  0.76458149     0.08200
H792        H  0.77897798  0.41857987  0.71006723     0.05000
C793        C  0.76219883  0.46524796  0.99636341    -0.20800
C794        C  0.73155325  0.46646503  0.96686440    -0.07400
C795        C  0.72020431  0.50315503  0.96894223     0.13500
C796        C  0.72080354  0.00161737  0.53039050    -0.20900
C797        C  0.76939190  0.03595588  0.53138418    -0.07400
C798        C  0.79948019  0.03443920  0.50058721     0.13500
C799        C  0.85170187  0.07094206  0.49882940    -0.24200
H800        H  0.77093544  0.43720151  0.99474561     0.14800
H801        H  0.69771940  0.00224165  0.55414408     0.14800
C802        C  0.68967585  0.50824678  0.93694354    -0.24200
H803        H  0.86895012  0.06617082  0.47114202     0.05000
H804        H  0.86992365  0.06745816  0.52622872     0.08200
H805        H  0.85687552  0.10746174  0.49764458     0.08200
H806        H  0.65301580  0.47728288  0.93838973     0.08200
H807        H  0.70482155  0.51065573  0.90574989     0.08200
H808        H  0.68746692  0.54092634  0.94191182     0.05000
C809        C  0.77113309  0.30025748  0.49042526    -0.20800
C810        C  0.72870205  0.26445947  0.96847911    -0.06600
C811        C  0.71271359  0.21514250  0.97372535     0.13500
C812        C  0.73218155  0.20059670  0.00521222    -0.20900
C813        C  0.77021179  0.23729869  0.53229582    -0.07400
C814        C  0.79095530  0.28643255  0.52212030     0.13500
C815        C  0.83334603  0.32506093  0.54469082    -0.24200
H816        H  0.78740480  0.33787518  0.48298174     0.14800
H817        H  0.71333211  0.16644096  0.51781360     0.14800
C818        C  0.67604708  0.17734383  0.94587699    -0.24200
H819        H  0.84329009  0.36128848  0.53353860     0.05000
H820        H  0.86451266  0.32063765  0.53982733     0.08200
H821        H  0.82522517  0.32359018  0.57808901     0.08200
H822        H  0.68815589  0.18508419  0.91332924     0.08200
H823        H  0.64167751  0.17611037  0.94947739     0.08200
H824        H  0.66973825  0.14120909  0.95335988     0.05000
C825        C  0.70504134  0.24503865  0.74819200    -0.20800
C826        C  0.73340039  0.26719306  0.78278230    -0.07400
C827        C  0.77873579  0.27172497  0.78527813     0.13500
C828        C  0.79465745  0.25476483  0.75275876    -0.20900
C829        C  0.76631674  0.23274029  0.71812593    -0.07400
C830        C  0.72090902  0.22797974  0.71574248     0.13500
C831        C  0.68975696  0.20674352  0.67842785    -0.24200
H832        H  0.67048092  0.24176139  0.74623960     0.14800
H833        H  0.82926765  0.25812575  0.75461568     0.14800
C834        C  0.80976580  0.29265238  0.82270933    -0.24200
H835        H  0.65686001  0.20866738  0.68078250     0.05000
H836        H  0.67901835  0.16856557  0.67523420     0.08200
H837        H  0.70917859  0.22654427  0.65032348     0.08200
H838        H  0.79013390  0.27282072  0.85073308     0.08200
H839        H  0.82079336  0.33089279  0.82599420     0.08200
H840        H  0.84250875  0.29043516  0.82043831     0.05000
Fe841      Fe  0.63060671  0.86704780  0.37494119     1.65800
Fe842      Fe  0.73537304  0.86670214  0.37593246     1.73200
Fe843      Fe  0.62956366  0.76083104  0.37405881     1.54400
O844        O  0.58242253  0.75598010  0.41910981    -0.82200
O845        O  0.74049375  0.82522314  0.33025312    -0.80500
O846        O  0.58483289  0.82568727  0.42127878    -0.84700
O847        O  0.58294435  0.82457842  0.33002518    -0.79500
O848        O  0.67003042  0.75539512  0.42039845    -0.81300
O849        O  0.74096459  0.91362539  0.33036428    -0.84100
C850        C  0.56963284  0.78376420  0.31465829     0.96700
C851        C  0.56930990  0.78348774  0.43435676     1.04100
O852        O  0.66516481  0.83150311  0.37498260    -1.13000
O853        O  0.74015280  0.91318217  0.42199075    -0.75500
O854        O  0.67292934  0.91450914  0.42013096    -0.79000
O855        O  0.58479623  0.75703771  0.32743487    -0.79700
C856        C  0.71361121  0.92839603  0.43519880     0.95600
O857        O  0.67240992  0.91254735  0.32839255    -0.77600
O858        O  0.73859124  0.82381817  0.42120104    -0.82800
C859        C  0.71391093  0.78362066  0.31600170     0.98200
C860        C  0.71140037  0.78184559  0.43471772     1.04100
O861        O  0.67195768  0.75643089  0.32893715    -0.78500
C862        C  0.71413128  0.92722687  0.31501353     1.02400
Fe863      Fe  0.86828356  0.63217082  0.12505920     1.65800
Fe864      Fe  0.76296118  0.63153981  0.12341291     1.73200
Fe865      Fe  0.86809270  0.73778094  0.12709093     1.54400
O866        O  0.91324323  0.74138509  0.17318494    -0.82200
O867        O  0.75990612  0.67457412  0.07803415    -0.80500
O868        O  0.91491147  0.67373364  0.17071960    -0.84700
O869        O  0.91447676  0.67499024  0.07958446    -0.79500
O870        O  0.82530554  0.74048176  0.17274351    -0.81300
O871        O  0.75959014  0.58609244  0.07723217    -0.84100
C872        C  0.92929167  0.71705033  0.06643500     0.96700
C873        C  0.92837035  0.71462345  0.18589412     1.04100
O874        O  0.83311301  0.66715346  0.12526733    -1.13000
O875        O  0.75732617  0.58421674  0.16873772    -0.75500
O876        O  0.82581145  0.58483549  0.17036955    -0.79000
O877        O  0.91532775  0.74387650  0.08164994    -0.79700
C878        C  0.78400303  0.57005385  0.18352611     0.95600
O879        O  0.82730783  0.58578472  0.07926734    -0.77600
O880        O  0.75654298  0.67208259  0.16926365    -0.82800
C881        C  0.78685343  0.71715282  0.06574892     0.98200
C882        C  0.78299669  0.71304401  0.18476788     1.04100
O883        O  0.82754081  0.74387023  0.08122238    -0.78500
C884        C  0.78650879  0.57121337  0.06439085     1.02400
C885        C  0.99399166  0.71523955  0.02755544    -0.20800
C886        C  0.96491927  0.73529588  0.03240295    -0.07400
C887        C  0.97022984  0.77120805  0.00440868     0.13500
C888        C  0.50169939  0.78242656  0.47055570    -0.20900
C889        C  0.53379277  0.76571563  0.46832218    -0.07400
C890        C  0.53143945  0.73322700  0.49864886     0.13500
C891        C  0.56534884  0.71457591  0.49893590    -0.24200
H892        H  0.99034981  0.68795613  0.04893417     0.14800
H893        H  0.50304850  0.80689081  0.44716714     0.14800
C894        C  0.93924993  0.79328442  0.00632904    -0.24200
H895        H  0.56021571  0.69212890  0.52644357     0.05000
H896        H  0.60248688  0.74483909  0.49930382     0.08200
H897        H  0.55951246  0.69201419  0.47137117     0.08200
H898        H  0.94597221  0.81394472  0.03528051     0.08200
H899        H  0.90132082  0.76495477  0.00463244     0.08200
H900        H  0.94651423  0.81835642  0.98037966     0.05000
C901        C  0.49351667  0.77020903  0.28571851    -0.20800
C902        C  0.53417878  0.76636482  0.28097637    -0.07400
C903        C  0.54008583  0.74619632  0.24435286     0.13500
C904        C  0.50484551  0.72961686  0.21385543    -0.20900
C905        C  0.96420810  0.73226455  0.21909264    -0.07400
C906        C  0.95771780  0.75065764  0.25647965     0.13500
C907        C  0.91287928  0.75152011  0.26515797    -0.24200
H908        H  0.48893077  0.78553133  0.31383734     0.14800
H909        H  0.01121730  0.71747036  0.18390567     0.14800
C910        C  0.58408868  0.74342181  0.23668819    -0.24200
H911        H  0.91267784  0.76473086  0.29671299     0.05000
H912        H  0.88169228  0.71495423  0.26228362     0.08200
H913        H  0.90961634  0.77566846  0.24302364     0.08200
H914        H  0.58613675  0.71910077  0.25944040     0.08200
H915        H  0.61600492  0.77953977  0.23932900     0.08200
H916        H  0.58417525  0.72941046  0.20545458     0.05000
C917        C  0.71636847  0.99534275  0.27822071    -0.20800
C918        C  0.73242380  0.96267097  0.28080617    -0.07400
C919        C  0.76522996  0.96484837  0.25093261     0.13500
C920        C  0.77305338  0.49542111  0.21502614    -0.20900
C921        C  0.76539965  0.53421449  0.21717963    -0.07400
C922        C  0.74052704  0.53807100  0.25136204     0.13500
C923        C  0.73336167  0.58019504  0.25643625    -0.24200
H924        H  0.69144916  0.99395272  0.30108188     0.14800
H925        H  0.79178985  0.49231126  0.18866898     0.14800
C926        C  0.78221579  0.92942369  0.25034910    -0.24200
H927        H  0.71600903  0.57895379  0.28626082     0.05000
H928        H  0.71036232  0.58045373  0.23151483     0.08200
H929        H  0.76816323  0.61391177  0.25553515     0.08200
H930        H  0.75137723  0.89247622  0.24916883     0.08200
H931        H  0.80371828  0.93388458  0.27815661     0.08200
H932        H  0.80492132  0.93445922  0.22308939     0.05000
C933        C  0.78015105  0.99888719  0.46995993    -0.20800
C934        C  0.73152362  0.96464932  0.46890114    -0.07400
C935        C  0.70152912  0.96591897  0.49991157     0.13500
C936        C  0.73903989  0.53683574  0.00090003    -0.20900
C937        C  0.76932505  0.53536139  0.03068943    -0.07400
C938        C  0.78116160  0.49899193  0.02825352     0.13500
C939        C  0.81237225  0.49423124  0.05973759    -0.24200
H940        H  0.80322856  0.99822092  0.44622152     0.14800
H941        H  0.73032444  0.56489538  0.00243282     0.14800
C942        C  0.64950397  0.92884468  0.50217187    -0.24200
H943        H  0.81513533  0.46192980  0.05432316     0.05000
H944        H  0.79748012  0.49133312  0.09111439     0.08200
H945        H  0.84880872  0.52556864  0.05811162     0.08200
H946        H  0.64494731  0.89256653  0.50328906     0.08200
H947        H  0.63065340  0.93186151  0.47503501     0.08200
H948        H  0.63242311  0.93335179  0.53010471     0.05000
C949        C  0.76610594  0.79926151  0.99477809    -0.20800
C950        C  0.72948932  0.76375079  0.46841834    -0.06600
C951        C  0.70751703  0.71492518  0.48000469     0.13500
C952        C  0.72761204  0.70119266  0.51149801    -0.20900
C953        C  0.76960962  0.73574791  0.03191647    -0.07400
C954        C  0.78565854  0.78501383  0.02637307     0.13500
C955        C  0.82250989  0.82303333  0.05394782    -0.24200
H956        H  0.77825341  0.83692426  0.99102525     0.14800
H957        H  0.72272381  0.66499114  0.00859041     0.14800
C958        C  0.66341844  0.67644751  0.45922100    -0.24200
H959        H  0.82883524  0.85911974  0.04621810     0.05000
H960        H  0.85682925  0.82417008  0.05031559     0.08200
H961        H  0.81058263  0.81559929  0.08655318     0.08200
H962        H  0.66995263  0.67602673  0.42566916     0.08200
H963        H  0.63347572  0.68270452  0.46456829     0.08200
H964        H  0.65247379  0.64037649  0.47145154     0.05000
C965        C  0.70191037  0.73925777  0.25054152    -0.20800
C966        C  0.73238184  0.76592764  0.28280024    -0.07400
C967        C  0.77920854  0.77409147  0.28310238     0.13500
C968        C  0.79438319  0.75613300  0.25081602    -0.20900
C969        C  0.76403941  0.72975088  0.21838495    -0.07400
C970        C  0.71708086  0.72128170  0.21824020     0.13500
C971        C  0.68321861  0.69498342  0.18349861    -0.24200
H972        H  0.66613854  0.73298381  0.25032696     0.14800
H973        H  0.83015312  0.76238816  0.25108621     0.14800
C974        C  0.81293565  0.80012784  0.31799602    -0.24200
H975        H  0.64922031  0.69455223  0.18722300     0.05000
H976        H  0.67479121  0.65732902  0.18266210     0.08200
H977        H  0.69925789  0.71265451  0.15369863     0.08200
H978        H  0.79661210  0.78245376  0.34772630     0.08200
H979        H  0.82167584  0.83787626  0.31886125     0.08200
H980        H  0.84679461  0.80024147  0.31445029     0.05000
Fe981      Fe  0.63186607  0.86922616  0.87524283     1.65800
Fe982      Fe  0.73664821  0.86856412  0.87534281     1.73200
Fe983      Fe  0.63069790  0.76294434  0.87458599     1.54400
O984        O  0.58398579  0.75848206  0.91984189    -0.82200
O985        O  0.74118009  0.82654973  0.83003769    -0.80500
O986        O  0.58576251  0.82780830  0.92143467    -0.84700
O987        O  0.58431098  0.82712429  0.83020235    -0.79500
O988        O  0.67147689  0.75783976  0.92077447    -0.81300
O989        O  0.74187042  0.91526021  0.82978949    -0.84100
C990        C  0.57057508  0.78601843  0.81529208     0.96700
C991        C  0.57060523  0.78583411  0.93488320     1.04100
O992        O  0.66639813  0.83358150  0.87500737    -1.13000
O993        O  0.74210040  0.91552841  0.92071289    -0.75500
O994        O  0.67403006  0.91564750  0.92063572    -0.79000
O995        O  0.58557772  0.75916699  0.82820385    -0.79700
C996        C  0.71519874  0.92986679  0.93457879     0.95600
O997        O  0.67402577  0.91556366  0.82914387    -0.77600
O998        O  0.74037030  0.82618584  0.92098933    -0.82800
C999        C  0.71474268  0.78465960  0.81640320     0.98200
C1000       C  0.71307110  0.78431241  0.93466464     1.04100
O1001       O  0.67279401  0.75774871  0.82953876    -0.78500
C1002       C  0.71555922  0.92999155  0.81535809     1.02400
Fe1003     Fe  0.87010895  0.63319455  0.62537098     1.65800
Fe1004     Fe  0.76460682  0.63189461  0.62494579     1.73200
Fe1005     Fe  0.86929008  0.73857621  0.62685961     1.54400
O1006       O  0.91452227  0.74289220  0.67306081    -0.82200
O1007       O  0.76056371  0.67418738  0.57937589    -0.80500
O1008       O  0.91650345  0.67535499  0.67085824    -0.84700
O1009       O  0.91600396  0.67577370  0.57958675    -0.79500
O1010       O  0.82656454  0.74184725  0.67252187    -0.81300
O1011       O  0.76077599  0.58598744  0.57902827    -0.84100
C1012       C  0.93056199  0.71766080  0.56615287     0.96700
C1013       C  0.92958036  0.71618001  0.68603439     1.04100
O1014       O  0.83470902  0.66790930  0.62575492    -1.13000
O1015       O  0.75995767  0.58561659  0.67080629    -0.75500
O1016       O  0.82835271  0.58612931  0.67121638    -0.79000
O1017       O  0.91655363  0.74451470  0.58128896    -0.79700
C1018       C  0.78697598  0.57175383  0.68527369     0.95600
O1019       O  0.82892992  0.58648475  0.57953836    -0.77600
O1020       O  0.75873795  0.67262220  0.67062678    -0.82800
C1021       C  0.78730246  0.71637996  0.56607776     0.98200
C1022       C  0.78470336  0.71396569  0.68545201     1.04100
O1023       O  0.82827072  0.74336450  0.58087380    -0.78500
C1024       C  0.78793064  0.57194361  0.56501190     1.02400
C1025       C  0.99644385  0.71714595  0.52799179    -0.20800
C1026       C  0.96590505  0.73563261  0.53184929    -0.07400
C1027       C  0.96944850  0.76969674  0.50259162     0.13500
C1028       C  0.50311816  0.78479657  0.97144515    -0.20900
C1029       C  0.53508130  0.76796061  0.96891067    -0.07400
C1030       C  0.53235687  0.73490373  0.99882975     0.13500
C1031       C  0.56695284  0.71708094  0.99951366    -0.24200
H1032       H  0.99411305  0.69123795  0.55031462     0.14800
H1033       H  0.50499707  0.81000546  0.94857732     0.14800
C1034       C  0.93686574  0.78991083  0.50350627    -0.24200
H1035       H  0.56159648  0.69434543  0.02685952     0.05000
H1036       H  0.60383513  0.74779254  0.00060119     0.08200
H1037       H  0.56222540  0.69506489  0.97180089     0.08200
H1038       H  0.94331468  0.81164419  0.53174500     0.08200
H1039       H  0.89934886  0.76046326  0.50264298     0.08200
H1040       H  0.94277768  0.81355490  0.47671360     0.05000
C1041       C  0.49288211  0.76958065  0.78780883    -0.20800
C1042       C  0.53485205  0.76839690  0.78190474    -0.07400
C1043       C  0.54179695  0.75042856  0.74445882     0.13500
C1044       C  0.50640689  0.73357310  0.71408422    -0.20900
C1045       C  0.96493550  0.73369273  0.71953898    -0.07400
C1046       C  0.95889171  0.75352028  0.75627834     0.13500
C1047       C  0.91488278  0.75629574  0.76404544    -0.24200
H1048       H  0.48751863  0.78312541  0.81665700     0.14800
H1049       H  0.01035922  0.71532466  0.68601323     0.14800
C1050       C  0.58708095  0.75036105  0.73588565    -0.24200
H1051       H  0.91486620  0.77030097  0.79529989     0.05000
H1052       H  0.88294416  0.72019660  0.76139852     0.08200
H1053       H  0.91279046  0.78062914  0.74133483     0.08200
H1054       H  0.59076864  0.72642955  0.75795843     0.08200
H1055       H  0.61788986  0.78713682  0.73892044     0.08200
H1056       H  0.58764587  0.73744617  0.70428948     0.05000
C1057       C  0.71603282  0.99722017  0.77804608    -0.20800
C1058       C  0.73423932  0.96633882  0.78172163    -0.07400
C1059       C  0.76972278  0.97128933  0.75350268     0.13500
C1060       C  0.77522496  0.49669776  0.71628203    -0.20900
C1061       C  0.76904312  0.53634464  0.71927866    -0.07400
C1062       C  0.74540966  0.54084315  0.75413166     0.13500
C1063       C  0.73962549  0.58374076  0.75994417    -0.24200
H1064       H  0.68940382  0.99414604  0.79980598     0.14800
H1065       H  0.79293464  0.49308846  0.68939308     0.14800
C1066       C  0.79055037  0.93909351  0.75453976    -0.24200
H1067       H  0.72288560  0.58272914  0.79005686     0.05000
H1068       H  0.71665540  0.58489033  0.73544013     0.08200
H1069       H  0.77485462  0.61693736  0.75888914     0.08200
H1070       H  0.76182144  0.90117594  0.75239647     0.08200
H1071       H  0.81095590  0.94499285  0.78336297     0.08200
H1072       H  0.81537680  0.94626540  0.72846885     0.05000
C1073       C  0.77506919  0.00871326  0.96207714    -0.20800
C1074       C  0.73284027  0.96518252  0.96815892    -0.07400
C1075       C  0.70801863  0.95636022  0.00582931     0.13500
C1076       C  0.72127519  0.50304518  0.52937399    -0.20900
C1077       C  0.77013284  0.53620251  0.53105495    -0.07400
C1078       C  0.80017330  0.53442556  0.50037118     0.13500
C1079       C  0.85258874  0.57030460  0.49882640    -0.24200
H1080       H  0.79362257  0.01539008  0.93288024     0.14800
H1081       H  0.69816783  0.50412840  0.55286600     0.14800
C1082       C  0.66339041  0.90939997  0.01409976    -0.24200
H1083       H  0.86969386  0.56542875  0.47108387     0.05000
H1084       H  0.87049495  0.56621189  0.52616614     0.08200
H1085       H  0.85838251  0.60707343  0.49785590     0.08200
H1086       H  0.67062256  0.87964107  0.01053214     0.08200
H1087       H  0.63518790  0.90429661  0.99223266     0.08200
H1088       H  0.64980320  0.90779746  0.04582339     0.05000
C1089       C  0.77133341  0.79676682  0.48885556    -0.20800
C1090       C  0.73100288  0.76608839  0.96815102    -0.06600
C1091       C  0.71554700  0.71694541  0.97324278     0.13500
C1092       C  0.73480805  0.70265514  0.00501015    -0.20900
C1093       C  0.76932180  0.73426715  0.53210022    -0.07400
C1094       C  0.79157511  0.78303377  0.52017613     0.13500
C1095       C  0.83628507  0.82150411  0.54023666    -0.24200
H1096       H  0.78862496  0.83416871  0.48038040     0.14800
H1097       H  0.71036410  0.66378507  0.51994458     0.14800
C1098       C  0.67995847  0.67917809  0.94469624    -0.24200
H1099       H  0.84766786  0.85744030  0.52743159     0.05000
H1100       H  0.86573086  0.81450504  0.53485718     0.08200
H1101       H  0.83035493  0.82284182  0.57379181     0.08200
H1102       H  0.69259832  0.68786367  0.91233498     0.08200
H1103       H  0.64504009  0.67680393  0.94796250     0.08200
H1104       H  0.67457451  0.64328799  0.95172327     0.05000
C1105       C  0.70160990  0.73428575  0.75452709    -0.20800
C1106       C  0.73340859  0.76641083  0.78367747    -0.07400
C1107       C  0.78182019  0.77951048  0.78130356     0.13500
C1108       C  0.79719363  0.76180396  0.74894868    -0.20900
C1109       C  0.76556156  0.73037282  0.71932238    -0.07400
C1110       C  0.71685530  0.71605006  0.72249500     0.13500
C1111       C  0.68065910  0.68281297  0.69169907    -0.24200
H1112       H  0.66454741  0.72376178  0.75651032     0.14800
H1113       H  0.83421722  0.77225070  0.74703778     0.14800
C1114       C  0.81739897  0.81059102  0.81345494    -0.24200
H1115       H  0.64508763  0.67816818  0.69762688     0.05000
H1116       H  0.67692255  0.64694458  0.69360865     0.08200
H1117       H  0.69161840  0.69742280  0.66008604     0.08200
H1118       H  0.80468311  0.79491528  0.84453397     0.08200
H1119       H  0.82287701  0.84718929  0.81238207     0.08200
H1120       H  0.85248660  0.81374615  0.80837250     0.05000
loop_ 
_geom_bond_atom_site_label_1 
_geom_bond_atom_site_label_2 
_geom_bond_distance 
_geom_bond_site_symmetry_2 
_ccdc_geom_bond_type 
Fe1          O17   2.070       .  S
Fe1           O7   2.073       .  S
Fe1          O14   2.074       .  S
Fe1           O6   2.062       .  S
Fe1          O12   1.983       .  S
Fe2           O5   2.058       .  S
Fe2           O9   2.068       .  S
Fe2          O13   2.072       .  S
Fe2          O18   2.074       .  S
Fe2          O12   1.980       .  S
Fe3          O21   2.063       .  S
Fe3           O8   2.071       .  S
Fe3          O15   2.070       .  S
Fe3           O4   2.068       .  S
Fe3          O12   1.981       .  S
O4           C11   1.269       .  A
O5           C19   1.266       .  A
O6           C11   1.269       .  A
O7           C10   1.270       .  A
O8           C20   1.270       .  A
O9           C22   1.269       .  A
C10          O15   1.269       .  A
C10          C62   1.483       .  S
C11          C49   1.489       .  S
O13          C16   1.269       .  A
O14          C16   1.269       .  A
C16          C94   1.491       .  S
O17          C22   1.270       .  A
O18          C20   1.272       .  A
C19          O21   1.268       .  A
C19         C126   1.486       .  S
C20         C110   1.498       .  S
C22          C78   1.483       .  S
Fe23         O39   2.062       .  S
Fe23         O29   2.066       .  S
Fe23         O36   2.072       .  S
Fe23         O28   2.063       .  S
Fe23         O34   1.979       .  S
Fe24         O27   2.070       .  S
Fe24         O31   2.058       .  S
Fe24         O35   2.071       .  S
Fe24         O40   2.055       .  S
Fe24         O34   1.974       .  S
Fe25         O43   2.063       .  S
Fe25         O30   2.066       .  S
Fe25         O37   2.067       .  S
Fe25         O26   2.061       .  S
Fe25         O34   1.979       .  S
O26          C33   1.267       .  A
O27          C41   1.270       .  A
O28          C33   1.268       .  A
O29          C32   1.271       .  A
O30          C42   1.270       .  A
O31          C44   1.268       .  A
C32          O37   1.269       .  A
C32          C46   1.488       .  S
C33          C65   1.478       .  S
O35          C38   1.270       .  A
O36          C38   1.271       .  A
C38          C81   1.490       .  S
O39          C44   1.266       .  A
O40          C42   1.266       .  A
C41          O43   1.267       .  A
C41         C113   1.492       .  S
C42         C129   1.484       .  S
C44          C97   1.491       .  S
C45          C46   1.405       .  A
C45         C750   1.404   1_554  A
C45          H52   1.084       .  S
C46          C47   1.418       .  A
C47         C748   1.405   1_554  A
C47          C54   1.510       .  S
C48          C49   1.407       .  A
C48         C747   1.405   1_455  A
C48          H53   1.084       .  S
C49          C50   1.418       .  A
C50         C745   1.404   1_455  A
C50          C51   1.509       .  S
C51          H55   1.111       .  S
C51          H56   1.111       .  S
C51          H57   1.110       .  S
C54          H58   1.110       .  S
C54          H59   1.110       .  S
C54          H60   1.111   1_554  S
C61          C62   1.404   1_655  A
C61         C626   1.406       .  A
C61          H68   1.084       .  S
C62          C63   1.415       .  A
C63          C64   1.407       .  A
C63          C70   1.507       .  S
C64         C625   1.405   1_455  A
C64         H629   1.084       .  S
C65          C66   1.414       .  A
C65         C624   1.404       .  A
C66         C621   1.403       .  A
C66          C67   1.508       .  S
C67          H71   1.111       .  S
C67          H72   1.111       .  S
C67          H73   1.109       .  S
H69         C624   1.084       .  S
C70          H74   1.109       .  S
C70          H75   1.111       .  S
C70          H76   1.111       .  S
C77          C78   1.403       .  A
C77         C362   1.405       .  A
C77          H84   1.084       .  S
C78          C79   1.416       .  A
C79         C360   1.407       .  A
C79          C86   1.509       .  S
C80          C81   1.405       .  A
C80         C359   1.407   1_545  A
C80          H85   1.084       .  S
C81          C82   1.418       .  A
C82         C357   1.407   1_545  A
C82          C83   1.509       .  S
C83          H87   1.111       .  S
C83          H88   1.109       .  S
C83          H89   1.111       .  S
C86          H90   1.111       .  S
C86          H91   1.109       .  S
C86          H92   1.111       .  S
C93          C94   1.406       .  A
C93         C518   1.408       .  A
C93         H100   1.084       .  S
C94          C95   1.417       .  A
C95         C516   1.408       .  A
C95         C102   1.508       .  S
C96          C97   1.406       .  A
C96         C515   1.403   1_544  A
C96         H101   1.084       .  S
C97          C98   1.420       .  A
C98         C513   1.404   1_544  A
C98          C99   1.510       .  S
C99         H103   1.111   1_554  S
C99         H104   1.110       .  S
C99         H105   1.111       .  S
C102        H106   1.111       .  S
C102        H107   1.109       .  S
C102        H108   1.111       .  S
C109        C114   1.406   1_556  A
C109        C250   1.406       .  A
C109        H116   1.085       .  S
C110        C111   1.422       .  A
C110        C249   1.406       .  A
C111        C112   1.407       .  A
C111        C118   1.509       .  S
C112        C253   1.405       .  A
C112        H257   1.085       .  S
C113        C114   1.419       .  A
C113        C252   1.405       .  A
C114        C115   1.509       .  S
C115        H119   1.111       .  S
C115        H120   1.110       .  S
C115        H121   1.110       .  S
H117        C252   1.085       .  S
C118        H122   1.111       .  S
C118        H123   1.110       .  S
C118        H124   1.111       .  S
C125        C126   1.405       .  A
C125        C130   1.403       .  A
C125        H132   1.082       .  S
C126        C127   1.419       .  A
C127        C128   1.403       .  A
C127        C134   1.509       .  S
C128        C129   1.403       .  A
C128        H133   1.082       .  S
C129        C130   1.417       .  A
C130        C131   1.509       .  S
C131        H135   1.111       .  S
C131        H136   1.110       .  S
C131        H137   1.111       .  S
C134        H138   1.111       .  S
C134        H139   1.110       .  S
C134        H140   1.111       .  S
Fe141       O157   2.078       .  S
Fe141       O147   2.077       .  S
Fe141       O154   2.070       .  S
Fe141       O146   2.069       .  S
Fe141       O152   1.983       .  S
Fe142       O145   2.061       .  S
Fe142       O149   2.062       .  S
Fe142       O153   2.064       .  S
Fe142       O158   2.067       .  S
Fe142       O152   1.982       .  S
Fe143       O161   2.063       .  S
Fe143       O148   2.067       .  S
Fe143       O155   2.067       .  S
Fe143       O144   2.063       .  S
Fe143       O152   1.980       .  S
O144        C151   1.267       .  A
O145        C159   1.267       .  A
O146        C151   1.269       .  A
O147        C150   1.272       .  A
O148        C160   1.269       .  A
O149        C162   1.268       .  A
C150        O155   1.269       .  A
C150        C202   1.485       .  S
C151        C189   1.491       .  S
O153        C156   1.268       .  A
O154        C156   1.269       .  A
C156        C234   1.474       .  S
O157        C162   1.271       .  A
O158        C160   1.270       .  A
C159        O161   1.268       .  A
C159        C266   1.489       .  S
C160        C250   1.492       .  S
C162        C218   1.487       .  S
Fe163       O179   2.070       .  S
Fe163       O169   2.065       .  S
Fe163       O176   2.072       .  S
Fe163       O168   2.071       .  S
Fe163       O174   1.982       .  S
Fe164       O167   2.080       .  S
Fe164       O171   2.061       .  S
Fe164       O175   2.073       .  S
Fe164       O180   2.059       .  S
Fe164       O174   1.979       .  S
Fe165       O183   2.065       .  S
Fe165       O170   2.068       .  S
Fe165       O177   2.071       .  S
Fe165       O166   2.064       .  S
Fe165       O174   1.978       .  S
O166        C173   1.268       .  A
O167        C181   1.273       .  A
O168        C173   1.270       .  A
O169        C172   1.270       .  A
O170        C182   1.269       .  A
O171        C184   1.268       .  A
C172        O177   1.269       .  A
C172        C186   1.490       .  S
C173        C205   1.480       .  S
O175        C178   1.270       .  A
O176        C178   1.271       .  A
C178        C221   1.492       .  S
O179        C184   1.269       .  A
O180        C182   1.266       .  A
C181        O183   1.268       .  A
C181        C253   1.497       .  S
C182        C269   1.488       .  S
C184        C237   1.483       .  S
C185        C186   1.406       .  A
C185        C610   1.406       .  A
C185        H192   1.084       .  S
C186        C187   1.418       .  A
C187        C608   1.406       .  A
C187        C194   1.509       .  S
C188        C607   1.406   1_456  A
C188        C189   1.406       .  A
C188        H193   1.084       .  S
C189        C190   1.419       .  A
C190        C605   1.405   1_456  A
C190        C191   1.509       .  S
C191        H195   1.111   1_556  S
C191        H196   1.111       .  S
C191        H197   1.110       .  S
C194        H198   1.109       .  S
C194        H199   1.111       .  S
C194        H200   1.111       .  S
C201        C202   1.404   1_655  A
C201        C766   1.406       .  A
C201        H208   1.084       .  S
C202        C203   1.416       .  A
C203        C204   1.407       .  A
C203        C210   1.508       .  S
C204        C765   1.405   1_455  A
C204        H769   1.084       .  S
C205        C764   1.403       .  A
C205        C206   1.415       .  A
C206        C761   1.406       .  A
C206        C207   1.507       .  S
C207        H211   1.111       .  S
C207        H212   1.111       .  S
C207        H213   1.108       .  S
H209        C764   1.084       .  S
C210        H214   1.109       .  S
C210        H215   1.111       .  S
C210        H216   1.111       .  S
C217        C218   1.406       .  A
C217        C502   1.408       .  A
C217        H224   1.084       .  S
C218        C219   1.417       .  A
C219        C500   1.404       .  A
C219        C226   1.509       .  S
C220        C499   1.408   1_545  A
C220        C221   1.406       .  A
C220        H225   1.084       .  S
C221        C222   1.418       .  A
C222        C497   1.407   1_545  A
C222        C223   1.509       .  S
C223        H227   1.111       .  S
C223        H228   1.109       .  S
C223        H229   1.111       .  S
C226        H230   1.111       .  S
C226        H231   1.109       .  S
C226        H232   1.111       .  S
C233        C234   1.403       .  A
C233        C378   1.404       .  A
C233        H240   1.085       .  S
C234        C235   1.412   1_556  A
C235        C376   1.405       .  A
C235        C242   1.507       .  S
C236        C375   1.405       .  A
C236        C237   1.405   1_565  A
C236        H241   1.085       .  S
C237        C238   1.415       .  A
C238        C373   1.405       .  A
C238        C239   1.508       .  S
C239        H243   1.111       .  S
C239        H244   1.109       .  S
C239        H245   1.111       .  S
C242        H246   1.111       .  S
C242        H247   1.110       .  S
C242        H248   1.111       .  S
C249        C254   1.407       .  A
C249        H256   1.085       .  S
C250        C251   1.419       .  A
C251        C252   1.404   1_556  A
C251        C258   1.509       .  S
C253        C254   1.421       .  A
C254        C255   1.509       .  S
C255        H259   1.111       .  S
C255        H260   1.110       .  S
C255        H261   1.110       .  S
C258        H262   1.111       .  S
C258        H263   1.110       .  S
C258        H264   1.111       .  S
C265        C266   1.405       .  A
C265        C270   1.404       .  A
C265        H272   1.082       .  S
C266        C267   1.418       .  A
C267        C268   1.403       .  A
C267        C274   1.509       .  S
C268        C269   1.405       .  A
C268        H273   1.082       .  S
C269        C270   1.418       .  A
C270        C271   1.509       .  S
C271        H275   1.111       .  S
C271        H276   1.110       .  S
C271        H277   1.111       .  S
C274        H278   1.111       .  S
C274        H279   1.110       .  S
C274        H280   1.111       .  S
Fe281       O297   2.074       .  S
Fe281       O287   2.070       .  S
Fe281       O294   2.070       .  S
Fe281       O286   2.066       .  S
Fe281       O292   1.981       .  S
Fe282       O285   2.054       .  S
Fe282       O289   2.069       .  S
Fe282       O293   2.059       .  S
Fe282       O298   2.076       .  S
Fe282       O292   1.980       .  S
Fe283       O301   2.067       .  S
Fe283       O288   2.067       .  S
Fe283       O295   2.066       .  S
Fe283       O284   2.070       .  S
Fe283       O292   1.979       .  S
O284        C291   1.269       .  A
O285        C299   1.265       .  A
O286        C291   1.270       .  A
O287        C290   1.269       .  A
O288        C300   1.268       .  A
O289        C302   1.269       .  A
C290        O295   1.268       .  A
C290        C342   1.480       .  S
C291        C329   1.491       .  S
O293        C296   1.267       .  A
O294        C296   1.269       .  A
C296        C374   1.482       .  S
O297        C302   1.271       .  A
O298        C300   1.272       .  A
C299        O301   1.269       .  A
C299        C406   1.487       .  S
C300        C390   1.499       .  S
C302        C358   1.491       .  S
Fe303       O319   2.063       .  S
Fe303       O309   2.071       .  S
Fe303       O316   2.080       .  S
Fe303       O308   2.069       .  S
Fe303       O314   1.983       .  S
Fe304       O307   2.068       .  S
Fe304       O311   2.068       .  S
Fe304       O315   2.060       .  S
Fe304       O320   2.063       .  S
Fe304       O314   1.981       .  S
Fe305       O323   2.068       .  S
Fe305       O310   2.058       .  S
Fe305       O317   2.060       .  S
Fe305       O306   2.070       .  S
Fe305       O314   1.979       .  S
O306        C313   1.269       .  A
O307        C321   1.271       .  A
O308        C313   1.270       .  A
O309        C312   1.270       .  A
O310        C322   1.268       .  A
O311        C324   1.268       .  A
C312        O317   1.267       .  A
C312        C326   1.491       .  S
C313        C345   1.481       .  S
O315        C318   1.268       .  A
O316        C318   1.272       .  A
C318        C361   1.485       .  S
O319        C324   1.268       .  A
O320        C322   1.267       .  A
C321        O323   1.269       .  A
C321        C393   1.494       .  S
C322        C409   1.488       .  S
C324        C377   1.473       .  S
C325        C326   1.406       .  A
C325       C1030   1.405   1_554  A
C325        H332   1.084       .  S
C326        C327   1.420       .  A
C327       C1028   1.406   1_554  A
C327        C334   1.510       .  S
C328       C1027   1.406   1_455  A
C328        C329   1.406       .  A
C328        H333   1.084       .  S
C329        C330   1.418       .  A
C330       C1025   1.405   1_455  A
C330        C331   1.509       .  S
C331        H335   1.111       .  S
C331        H336   1.111       .  S
C331        H337   1.110       .  S
C334        H338   1.110       .  S
C334        H339   1.111       .  S
C334        H340   1.111   1_554  S
C341        C342   1.403   1_655  A
C341        C906   1.404       .  A
C341        H348   1.084       .  S
C342        C343   1.414       .  A
C343        C344   1.406       .  A
C343        C350   1.507       .  S
C344        C905   1.404   1_455  A
C344        H909   1.084       .  S
C345        C904   1.403       .  A
C345        C346   1.414       .  A
C346        C901   1.406       .  A
C346        C347   1.507       .  S
C347        H351   1.111       .  S
C347        H352   1.111       .  S
C347        H353   1.109       .  S
H349        C904   1.084       .  S
C350        H354   1.108       .  S
C350        H355   1.111       .  S
C350        H356   1.111       .  S
C357        C358   1.405       .  A
C357        H364   1.084       .  S
C358        C359   1.419       .  A
C359        C366   1.509       .  S
C360        C361   1.405       .  A
C360        H365   1.084       .  S
C361        C362   1.417       .  A
C362        C363   1.509       .  S
C363        H367   1.111       .  S
C363        H368   1.109       .  S
C363        H369   1.111       .  S
C366        H370   1.111       .  S
C366        H371   1.109       .  S
C366        H372   1.111       .  S
C373        C374   1.405   1_545  A
C373        H380   1.085       .  S
C374        C375   1.415       .  A
C375        C382   1.508       .  S
C376        C377   1.403       .  A
C376        H381   1.085       .  S
C377        C378   1.412   1_554  A
C378        C379   1.507       .  S
C379        H383   1.111       .  S
C379        H384   1.110   1_556  S
C379        H385   1.111       .  S
C382        H386   1.111       .  S
C382        H387   1.109       .  S
C382        H388   1.111       .  S
C389        C530   1.405       .  A
C389        C394   1.405   1_556  A
C389        H396   1.085       .  S
C390        C529   1.407       .  A
C390        C391   1.421       .  A
C391        C392   1.406       .  A
C391        C398   1.509       .  S
C392        C533   1.406       .  A
C392        H537   1.084       .  S
C393        C532   1.406       .  A
C393        C394   1.421       .  A
C394        C395   1.509       .  S
C395        H399   1.111       .  S
C395        H400   1.110       .  S
C395        H401   1.111       .  S
H397        C532   1.085       .  S
C398        H402   1.110       .  S
C398        H403   1.110       .  S
C398        H404   1.111       .  S
C405        C406   1.404       .  A
C405        C410   1.403       .  A
C405        H412   1.082       .  S
C406        C407   1.418       .  A
C407        C408   1.403       .  A
C407        C414   1.509       .  S
C408        C409   1.405       .  A
C408        H413   1.082       .  S
C409        C410   1.418       .  A
C410        C411   1.509       .  S
C411        H415   1.111       .  S
C411        H416   1.109       .  S
C411        H417   1.111       .  S
C414        H418   1.110       .  S
C414        H419   1.110       .  S
C414        H420   1.111       .  S
Fe421       O437   2.073       .  S
Fe421       O427   2.065       .  S
Fe421       O434   2.061       .  S
Fe421       O426   2.068       .  S
Fe421       O432   1.980       .  S
Fe422       O425   2.056       .  S
Fe422       O429   2.071       .  S
Fe422       O433   2.059       .  S
Fe422       O438   2.071       .  S
Fe422       O432   1.977       .  S
Fe423       O441   2.067       .  S
Fe423       O428   2.063       .  S
Fe423       O435   2.060       .  S
Fe423       O424   2.067       .  S
Fe423       O432   1.979       .  S
O424        C431   1.269       .  A
O425        C439   1.266       .  A
O426        C431   1.271       .  A
O427        C430   1.268       .  A
O428        C440   1.267       .  A
O429        C442   1.270       .  A
C430        O435   1.267       .  A
C430        C482   1.478       .  S
C431        C469   1.490       .  S
O433        C436   1.268       .  A
O434        C436   1.266       .  A
C436        C514   1.492       .  S
O437        C442   1.272       .  A
O438        C440   1.271       .  A
C439        O441   1.270       .  A
C439        C546   1.487       .  S
C440        C530   1.492       .  S
C442        C498   1.492       .  S
Fe443       O459   2.076       .  S
Fe443       O449   2.061       .  S
Fe443       O456   2.070       .  S
Fe443       O448   2.075       .  S
Fe443       O454   1.982       .  S
Fe444       O447   2.073       .  S
Fe444       O451   2.071       .  S
Fe444       O455   2.069       .  S
Fe444       O460   2.057       .  S
Fe444       O454   1.979       .  S
Fe445       O463   2.069       .  S
Fe445       O450   2.065       .  S
Fe445       O457   2.068       .  S
Fe445       O446   2.068       .  S
Fe445       O454   1.982       .  S
O446        C453   1.268       .  A
O447        C461   1.272       .  A
O448        C453   1.270       .  A
O449        C452   1.269       .  A
O450        C462   1.269       .  A
O451        C464   1.269       .  A
C452        O457   1.269       .  A
C452        C466   1.487       .  S
C453        C485   1.483       .  S
O455        C458   1.269       .  A
O456        C458   1.270       .  A
C458        C501   1.485       .  S
O459        C464   1.270       .  A
O460        C462   1.265       .  A
C461        O463   1.269       .  A
C461        C533   1.499       .  S
C462        C549   1.489       .  S
C464        C517   1.491       .  S
C465        C466   1.405       .  A
C465        C890   1.404       .  A
C465        H472   1.084       .  S
C466        C467   1.417       .  A
C467        C888   1.405       .  A
C467        C474   1.509       .  S
C468        C887   1.405   1_456  A
C468        C469   1.406       .  A
C468        H473   1.084       .  S
C469        C470   1.419       .  A
C470        C885   1.404   1_456  A
C470        C471   1.510       .  S
C471        H475   1.111   1_556  S
C471        H476   1.110       .  S
C471        H477   1.110       .  S
C474        H478   1.109       .  S
C474        H479   1.111       .  S
C474        H480   1.111       .  S
C481        C482   1.404   1_655  A
C481       C1046   1.404       .  A
C481        H488   1.084       .  S
C482        C483   1.414       .  A
C483        C484   1.403       .  A
C483        C490   1.508       .  S
C484       C1045   1.403   1_455  A
C484       H1049   1.084       .  S
C485       C1044   1.404       .  A
C485        C486   1.415       .  A
C486       C1041   1.407       .  A
C486        C487   1.507       .  S
C487        H491   1.111       .  S
C487        H492   1.111       .  S
C487        H493   1.108       .  S
H489       C1044   1.084       .  S
C490        H494   1.109       .  S
C490        H495   1.111       .  S
C490        H496   1.111       .  S
C497        C498   1.406       .  A
C497        H504   1.084       .  S
C498        C499   1.419       .  A
C499        C506   1.509       .  S
C500        C501   1.403       .  A
C500        H505   1.084       .  S
C501        C502   1.417       .  A
C502        C503   1.509       .  S
C503        H507   1.111       .  S
C503        H508   1.109       .  S
C503        H509   1.111       .  S
C506        H510   1.111       .  S
C506        H511   1.110       .  S
C506        H512   1.111       .  S
C513        C514   1.407       .  A
C513        H520   1.084       .  S
C514        C515   1.420       .  A
C515        C522   1.510       .  S
C516        C517   1.406       .  A
C516        H521   1.084       .  S
C517        C518   1.416       .  A
C518        C519   1.508       .  S
C519        H523   1.111       .  S
C519        H524   1.109       .  S
C519        H525   1.111       .  S
C522        H526   1.110       .  S
C522        H527   1.110       .  S
C522        H528   1.111   1_556  S
C529        C534   1.407       .  A
C529        H536   1.085       .  S
C530        C531   1.420       .  A
C531        C532   1.406   1_556  A
C531        C538   1.509       .  S
C533        C534   1.422       .  A
C534        C535   1.509       .  S
C535        H539   1.111       .  S
C535        H540   1.110       .  S
C535        H541   1.110       .  S
C538        H542   1.110       .  S
C538        H543   1.110       .  S
C538        H544   1.111       .  S
C545        C546   1.404       .  A
C545        C550   1.403       .  A
C545        H552   1.082       .  S
C546        C547   1.418       .  A
C547        C548   1.403       .  A
C547        C554   1.509       .  S
C548        C549   1.405       .  A
C548        H553   1.082       .  S
C549        C550   1.419       .  A
C550        C551   1.509       .  S
C551        H555   1.111       .  S
C551        H556   1.110       .  S
C551        H557   1.111       .  S
C554        H558   1.111       .  S
C554        H559   1.110       .  S
C554        H560   1.111       .  S
Fe561       O577   2.072       .  S
Fe561       O567   2.064       .  S
Fe561       O574   2.064       .  S
Fe561       O566   2.067       .  S
Fe561       O572   1.983       .  S
Fe562       O565   2.064       .  S
Fe562       O569   2.067       .  S
Fe562       O573   2.068       .  S
Fe562       O578   2.071       .  S
Fe562       O572   1.980       .  S
Fe563       O581   2.071       .  S
Fe563       O568   2.067       .  S
Fe563       O575   2.063       .  S
Fe563       O564   2.071       .  S
Fe563       O572   1.979       .  S
O564        C571   1.269       .  A
O565        C579   1.267       .  A
O566        C571   1.270       .  A
O567        C570   1.268       .  A
O568        C580   1.269       .  A
O569        C582   1.269       .  A
C570        O575   1.268       .  A
C570        C622   1.478       .  S
C571        C609   1.492       .  S
O573        C576   1.269       .  A
O574        C576   1.267       .  A
C576        C654   1.489       .  S
O577        C582   1.271       .  A
O578        C580   1.271       .  A
C579        O581   1.269       .  A
C579        C686   1.489       .  S
C580        C670   1.499       .  S
C582        C638   1.484       .  S
Fe583       O599   2.062       .  S
Fe583       O589   2.067       .  S
Fe583       O596   2.075       .  S
Fe583       O588   2.069       .  S
Fe583       O594   1.986       .  S
Fe584       O587   2.073       .  S
Fe584       O591   2.061       .  S
Fe584       O595   2.064       .  S
Fe584       O600   2.064       .  S
Fe584       O594   1.981       .  S
Fe585       O603   2.074       .  S
Fe585       O590   2.069       .  S
Fe585       O597   2.068       .  S
Fe585       O586   2.072       .  S
Fe585       O594   1.978       .  S
O586        C593   1.270       .  A
O587        C601   1.271       .  A
O588        C593   1.269       .  A
O589        C592   1.270       .  A
O590        C602   1.270       .  A
O591        C604   1.267       .  A
C592        O597   1.269       .  A
C592        C606   1.491       .  S
C593        C625   1.483       .  S
O595        C598   1.268       .  A
O596        C598   1.272       .  A
C598        C641   1.492       .  S
O599        C604   1.267       .  A
O600        C602   1.268       .  A
C601        O603   1.270       .  A
C601        C673   1.498       .  S
C602        C689   1.489       .  S
C604        C657   1.472       .  S
C605        C606   1.406       .  A
C605        H612   1.084       .  S
C606        C607   1.418       .  A
C607        C614   1.509       .  S
C608        C609   1.407       .  A
C608        H613   1.084       .  S
C609        C610   1.419       .  A
C610        C611   1.509       .  S
C611        H615   1.111       .  S
C611        H616   1.111       .  S
C611        H617   1.109       .  S
C614        H618   1.109       .  S
C614        H619   1.111   1_554  S
C614        H620   1.111   1_554  S
C621        C622   1.404       .  A
C621        H628   1.084       .  S
C622        C623   1.414       .  A
C623        C624   1.403       .  A
C623        C630   1.507       .  S
C625        C626   1.414       .  A
C626        C627   1.507       .  S
C627        H631   1.111       .  S
C627        H632   1.111       .  S
C627        H633   1.109       .  S
C630        H634   1.109       .  S
C630        H635   1.111       .  S
C630        H636   1.111       .  S
C637        C638   1.404       .  A
C637        C922   1.406       .  A
C637        H644   1.084       .  S
C638        C639   1.416       .  A
C639        C920   1.406       .  A
C639        C646   1.509       .  S
C640        C919   1.407   1_545  A
C640        C641   1.407       .  A
C640        H645   1.084       .  S
C641        C642   1.419       .  A
C642        C917   1.405   1_545  A
C642        C643   1.509       .  S
C643        H647   1.111       .  S
C643        H648   1.109       .  S
C643        H649   1.111       .  S
C646        H650   1.111       .  S
C646        H651   1.109       .  S
C646        H652   1.111       .  S
C653        C654   1.406       .  A
C653       C1078   1.406       .  A
C653        H660   1.085       .  S
C654        C655   1.418       .  A
C655       C1076   1.405       .  A
C655        C662   1.509       .  S
C656       C1075   1.403       .  A
C656        C657   1.402   1_565  A
C656        H661   1.085       .  S
C657        C658   1.413   1_554  A
C658       C1073   1.404       .  A
C658        C659   1.508       .  S
C659        H663   1.111       .  S
C659        H664   1.109   1_556  S
C659        H665   1.111       .  S
C662        H666   1.111       .  S
C662        H667   1.109       .  S
C662        H668   1.111       .  S
C669        C810   1.407       .  A
C669        C674   1.408   1_556  A
C669        H676   1.085       .  S
C670        C809   1.408       .  A
C670        C671   1.421       .  A
C671        C672   1.405       .  A
C671        C678   1.509       .  S
C672        C813   1.407       .  A
C672        H817   1.084       .  S
C673        C812   1.406       .  A
C673        C674   1.420       .  A
C674        C675   1.508       .  S
C675        H679   1.111       .  S
C675        H680   1.110       .  S
C675        H681   1.111       .  S
H677        C812   1.085       .  S
C678        H682   1.110       .  S
C678        H683   1.109       .  S
C678        H684   1.111       .  S
C685        C686   1.405       .  A
C685        C690   1.406       .  A
C685        H692   1.082       .  S
C686        C687   1.418       .  A
C687        C688   1.405       .  A
C687        C694   1.508       .  S
C688        C689   1.404       .  A
C688        H693   1.081       .  S
C689        C690   1.418       .  A
C690        C691   1.509       .  S
C691        H695   1.111       .  S
C691        H696   1.110       .  S
C691        H697   1.111       .  S
C694        H698   1.111       .  S
C694        H699   1.109       .  S
C694        H700   1.111       .  S
Fe701       O717   2.073       .  S
Fe701       O707   2.065       .  S
Fe701       O714   2.057       .  S
Fe701       O706   2.067       .  S
Fe701       O712   1.985       .  S
Fe702       O705   2.064       .  S
Fe702       O709   2.071       .  S
Fe702       O713   2.063       .  S
Fe702       O718   2.073       .  S
Fe702       O712   1.980       .  S
Fe703       O721   2.066       .  S
Fe703       O708   2.075       .  S
Fe703       O715   2.068       .  S
Fe703       O704   2.065       .  S
Fe703       O712   1.979       .  S
O704        C711   1.268       .  A
O705        C719   1.267       .  A
O706        C711   1.270       .  A
O707        C710   1.268       .  A
O708        C720   1.270       .  A
O709        C722   1.271       .  A
C710        O715   1.269       .  A
C710        C762   1.478       .  S
C711        C749   1.491       .  S
O713        C716   1.268       .  A
O714        C716   1.266       .  A
C716        C794   1.482       .  S
O717        C722   1.271       .  A
O718        C720   1.272       .  A
C719        O721   1.269       .  A
C719        C826   1.481       .  S
C720        C810   1.500       .  S
C722        C778   1.485       .  S
Fe723       O739   2.071       .  S
Fe723       O729   2.062       .  S
Fe723       O736   2.068       .  S
Fe723       O728   2.071       .  S
Fe723       O734   1.981       .  S
Fe724       O727   2.066       .  S
Fe724       O731   2.071       .  S
Fe724       O735   2.067       .  S
Fe724       O740   2.064       .  S
Fe724       O734   1.980       .  S
Fe725       O743   2.075       .  S
Fe725       O730   2.068       .  S
Fe725       O737   2.070       .  S
Fe725       O726   2.070       .  S
Fe725       O734   1.981       .  S
O726        C733   1.268       .  A
O727        C741   1.270       .  A
O728        C733   1.269       .  A
O729        C732   1.270       .  A
O730        C742   1.269       .  A
O731        C744   1.269       .  A
C732        O737   1.270       .  A
C732        C746   1.489       .  S
C733        C765   1.486       .  S
O735        C738   1.269       .  A
O736        C738   1.271       .  A
C738        C781   1.491       .  S
O739        C744   1.268       .  A
O740        C742   1.268       .  A
C741        O743   1.269       .  A
C741        C813   1.501       .  S
C742        C829   1.481       .  S
C744        C797   1.492       .  S
C745        C746   1.406       .  A
C745        H752   1.084       .  S
C746        C747   1.418       .  A
C747        C754   1.509       .  S
C748        C749   1.407       .  A
C748        H753   1.084       .  S
C749        C750   1.419       .  A
C750        C751   1.509       .  S
C751        H755   1.111   1_556  S
C751        H756   1.111       .  S
C751        H757   1.109       .  S
C754        H758   1.110       .  S
C754        H759   1.111       .  S
C754        H760   1.111       .  S
C761        C762   1.404       .  A
C761        H768   1.084       .  S
C762        C763   1.413       .  A
C763        C764   1.404       .  A
C763        C770   1.506       .  S
C765        C766   1.415       .  A
C766        C767   1.506       .  S
C767        H771   1.111       .  S
C767        H772   1.111       .  S
C767        H773   1.109       .  S
C770        H774   1.109       .  S
C770        H775   1.111       .  S
C770        H776   1.111       .  S
C777        C778   1.406       .  A
C777       C1062   1.407       .  A
C777        H784   1.084       .  S
C778        C779   1.416       .  A
C779       C1060   1.406       .  A
C779        C786   1.508       .  S
C780       C1059   1.405   1_545  A
C780        C781   1.405       .  A
C780        H785   1.084       .  S
C781        C782   1.419       .  A
C782       C1057   1.406   1_545  A
C782        C783   1.509       .  S
C783        H787   1.111       .  S
C783        H788   1.109       .  S
C783        H789   1.111       .  S
C786        H790   1.111       .  S
C786        H791   1.109       .  S
C786        H792   1.111       .  S
C793        C794   1.403       .  A
C793        C938   1.403   1_556  A
C793        H800   1.085       .  S
C794        C795   1.417       .  A
C795        C936   1.403   1_556  A
C795        C802   1.509       .  S
C796        C935   1.407   1_545  A
C796        C797   1.406       .  A
C796        H801   1.084       .  S
C797        C798   1.418       .  A
C798        C933   1.408   1_545  A
C798        C799   1.509       .  S
C799        H803   1.111       .  S
C799        H804   1.109       .  S
C799        H805   1.111       .  S
C802        H806   1.109       .  S
C802        H807   1.111       .  S
C802        H808   1.111       .  S
C809        C814   1.407       .  A
C809        H816   1.085       .  S
C810        C811   1.421       .  A
C811        C812   1.408   1_556  A
C811        C818   1.508       .  S
C813        C814   1.421       .  A
C814        C815   1.509       .  S
C815        H819   1.111       .  S
C815        H820   1.110       .  S
C815        H821   1.110       .  S
C818        H822   1.110       .  S
C818        H823   1.110       .  S
C818        H824   1.111       .  S
C825        C826   1.402       .  A
C825        C830   1.404       .  A
C825        H832   1.082       .  S
C826        C827   1.416       .  A
C827        C828   1.404       .  A
C827        C834   1.508       .  S
C828        C829   1.403       .  A
C828        H833   1.083       .  S
C829        C830   1.415       .  A
C830        C831   1.508       .  S
C831        H835   1.111       .  S
C831        H836   1.109       .  S
C831        H837   1.111       .  S
C834        H838   1.111       .  S
C834        H839   1.109       .  S
C834        H840   1.111       .  S
Fe841       O857   2.070       .  S
Fe841       O847   2.071       .  S
Fe841       O854   2.071       .  S
Fe841       O846   2.065       .  S
Fe841       O852   1.982       .  S
Fe842       O845   2.064       .  S
Fe842       O849   2.066       .  S
Fe842       O853   2.071       .  S
Fe842       O858   2.065       .  S
Fe842       O852   1.981       .  S
Fe843       O861   2.067       .  S
Fe843       O848   2.072       .  S
Fe843       O855   2.069       .  S
Fe843       O844   2.068       .  S
Fe843       O852   1.980       .  S
O844        C851   1.269       .  A
O845        C859   1.268       .  A
O846        C851   1.270       .  A
O847        C850   1.269       .  A
O848        C860   1.269       .  A
O849        C862   1.268       .  A
C850        O855   1.268       .  A
C850        C902   1.484       .  S
C851        C889   1.487       .  S
O853        C856   1.269       .  A
O854        C856   1.268       .  A
C856        C934   1.492       .  S
O857        C862   1.271       .  A
O858        C860   1.270       .  A
C859        O861   1.269       .  A
C859        C966   1.483       .  S
C860        C950   1.500       .  S
C862        C918   1.489       .  S
Fe863       O879   2.058       .  S
Fe863       O869   2.064       .  S
Fe863       O876   2.071       .  S
Fe863       O868   2.066       .  S
Fe863       O874   1.984       .  S
Fe864       O867   2.069       .  S
Fe864       O871   2.065       .  S
Fe864       O875   2.069       .  S
Fe864       O880   2.064       .  S
Fe864       O874   1.980       .  S
Fe865       O883   2.072       .  S
Fe865       O870   2.066       .  S
Fe865       O877   2.068       .  S
Fe865       O866   2.067       .  S
Fe865       O874   1.979       .  S
O866        C873   1.268       .  A
O867        C881   1.270       .  A
O868        C873   1.268       .  A
O869        C872   1.270       .  A
O870        C882   1.269       .  A
O871        C884   1.268       .  A
C872        O877   1.269       .  A
C872        C886   1.491       .  S
C873        C905   1.480       .  S
O875        C878   1.270       .  A
O876        C878   1.271       .  A
C878        C921   1.484       .  S
O879        C884   1.266       .  A
O880        C882   1.268       .  A
C881        O883   1.269       .  A
C881        C953   1.496       .  S
C882        C969   1.484       .  S
C884        C937   1.485       .  S
C885        C886   1.406       .  A
C885        H892   1.084       .  S
C886        C887   1.419       .  A
C887        C894   1.509       .  S
C888        C889   1.406       .  A
C888        H893   1.084       .  S
C889        C890   1.417       .  A
C890        C891   1.509       .  S
C891        H895   1.111       .  S
C891        H896   1.111       .  S
C891        H897   1.109       .  S
C894        H898   1.110       .  S
C894        H899   1.111       .  S
C894        H900   1.111   1_554  S
C901        C902   1.405       .  A
C901        H908   1.084       .  S
C902        C903   1.415       .  A
C903        C904   1.406       .  A
C903        C910   1.506       .  S
C905        C906   1.413       .  A
C906        C907   1.506       .  S
C907        H911   1.111       .  S
C907        H912   1.111       .  S
C907        H913   1.109       .  S
C910        H914   1.109       .  S
C910        H915   1.111       .  S
C910        H916   1.111       .  S
C917        C918   1.404       .  A
C917        H924   1.084       .  S
C918        C919   1.418       .  A
C919        C926   1.509       .  S
C920        C921   1.405       .  A
C920        H925   1.084       .  S
C921        C922   1.416       .  A
C922        C923   1.509       .  S
C923        H927   1.111       .  S
C923        H928   1.109       .  S
C923        H929   1.111       .  S
C926        H930   1.111       .  S
C926        H931   1.109       .  S
C926        H932   1.111       .  S
C933        C934   1.406       .  A
C933        H940   1.084       .  S
C934        C935   1.418       .  A
C935        C942   1.509       .  S
C936        C937   1.404       .  A
C936        H941   1.085       .  S
C937        C938   1.419       .  A
C938        C939   1.509       .  S
C939        H943   1.111       .  S
C939        H944   1.111       .  S
C939        H945   1.110       .  S
C942        H946   1.111       .  S
C942        H947   1.109       .  S
C942        H948   1.111       .  S
C949       C1090   1.406       .  A
C949        C954   1.407   1_556  A
C949        H956   1.085       .  S
C950       C1089   1.407       .  A
C950        C951   1.421       .  A
C951        C952   1.406       .  A
C951        C958   1.509       .  S
C952       C1093   1.408       .  A
C952       H1097   1.084       .  S
C953       C1092   1.407       .  A
C953        C954   1.421       .  A
C954        C955   1.508       .  S
C955        H959   1.111       .  S
C955        H960   1.110       .  S
C955        H961   1.110       .  S
H957       C1092   1.085       .  S
C958        H962   1.110       .  S
C958        H963   1.109       .  S
C958        H964   1.111       .  S
C965        C966   1.403       .  A
C965        C970   1.405       .  A
C965        H972   1.081       .  S
C966        C967   1.416       .  A
C967        C968   1.404       .  A
C967        C974   1.508       .  S
C968        C969   1.404       .  A
C968        H973   1.081       .  S
C969        C970   1.416       .  A
C970        C971   1.508       .  S
C971        H975   1.111       .  S
C971        H976   1.109       .  S
C971        H977   1.111       .  S
C974        H978   1.111       .  S
C974        H979   1.109       .  S
C974        H980   1.111       .  S
Fe981       O997   2.073       .  S
Fe981       O987   2.069       .  S
Fe981       O994   2.061       .  S
Fe981       O986   2.066       .  S
Fe981       O992   1.984       .  S
Fe982       O985   2.059       .  S
Fe982       O989   2.064       .  S
Fe982       O993   2.060       .  S
Fe982       O998   2.069       .  S
Fe982       O992   1.982       .  S
Fe983      O1001   2.069       .  S
Fe983       O988   2.071       .  S
Fe983       O995   2.071       .  S
Fe983       O984   2.067       .  S
Fe983       O992   1.979       .  S
O984        C991   1.268       .  A
O985        C999   1.267       .  A
O986        C991   1.269       .  A
O987        C990   1.269       .  A
O988       C1000   1.270       .  A
O989       C1002   1.268       .  A
C990        O995   1.270       .  A
C990       C1042   1.482       .  S
C991       C1029   1.489       .  S
O993        C996   1.266       .  A
O994        C996   1.267       .  A
C996       C1074   1.472       .  S
O997       C1002   1.272       .  A
O998       C1000   1.271       .  A
C999       O1001   1.270       .  A
C999       C1106   1.487       .  S
C1000      C1090   1.494       .  S
C1002      C1058   1.493       .  S
Fe1003     O1019   2.065       .  S
Fe1003     O1009   2.065       .  S
Fe1003     O1016   2.073       .  S
Fe1003     O1008   2.064       .  S
Fe1003     O1014   1.983       .  S
Fe1004     O1007   2.070       .  S
Fe1004     O1011   2.065       .  S
Fe1004     O1015   2.067       .  S
Fe1004     O1020   2.057       .  S
Fe1004     O1014   1.978       .  S
Fe1005     O1023   2.068       .  S
Fe1005     O1010   2.072       .  S
Fe1005     O1017   2.073       .  S
Fe1005     O1006   2.064       .  S
Fe1005     O1014   1.980       .  S
O1006      C1013   1.268       .  A
O1007      C1021   1.271       .  A
O1008      C1013   1.268       .  A
O1009      C1012   1.270       .  A
O1010      C1022   1.270       .  A
O1011      C1024   1.269       .  A
C1012      O1017   1.270       .  A
C1012      C1026   1.492       .  S
C1013      C1045   1.478       .  S
O1015      C1018   1.269       .  A
O1016      C1018   1.271       .  A
C1018      C1061   1.484       .  S
O1019      C1024   1.267       .  A
O1020      C1022   1.266       .  A
C1021      O1023   1.268       .  A
C1021      C1093   1.500       .  S
C1022      C1109   1.488       .  S
C1024      C1077   1.489       .  S
C1025      C1026   1.407       .  A
C1025      H1032   1.084       .  S
C1026      C1027   1.418       .  A
C1027      C1034   1.508       .  S
C1028      C1029   1.405       .  A
C1028      H1033   1.084       .  S
C1029      C1030   1.418       .  A
C1030      C1031   1.509       .  S
C1031      H1035   1.111   1_556  S
C1031      H1036   1.111   1_556  S
C1031      H1037   1.109       .  S
C1034      H1038   1.109       .  S
C1034      H1039   1.111       .  S
C1034      H1040   1.111       .  S
C1041      C1042   1.405       .  A
C1041      H1048   1.084       .  S
C1042      C1043   1.414       .  A
C1043      C1044   1.406       .  A
C1043      C1050   1.507       .  S
C1045      C1046   1.414       .  A
C1046      C1047   1.507       .  S
C1047      H1051   1.111       .  S
C1047      H1052   1.111       .  S
C1047      H1053   1.109       .  S
C1050      H1054   1.109       .  S
C1050      H1055   1.111       .  S
C1050      H1056   1.111       .  S
C1057      C1058   1.407       .  A
C1057      H1064   1.084       .  S
C1058      C1059   1.420       .  A
C1059      C1066   1.509       .  S
C1060      C1061   1.404       .  A
C1060      H1065   1.084       .  S
C1061      C1062   1.416       .  A
C1062      C1063   1.509       .  S
C1063      H1067   1.111       .  S
C1063      H1068   1.109       .  S
C1063      H1069   1.111       .  S
C1066      H1070   1.111       .  S
C1066      H1071   1.110       .  S
C1066      H1072   1.111       .  S
C1073      C1074   1.403   1_545  A
C1073      H1080   1.085       .  S
C1074      C1075   1.412   1_556  A
C1075      C1082   1.508       .  S
C1076      C1077   1.405       .  A
C1076      H1081   1.085       .  S
C1077      C1078   1.418       .  A
C1078      C1079   1.509       .  S
C1079      H1083   1.111       .  S
C1079      H1084   1.109       .  S
C1079      H1085   1.111       .  S
C1082      H1086   1.111       .  S
C1082      H1087   1.109   1_554  S
C1082      H1088   1.111       .  S
C1089      C1094   1.405       .  A
C1089      H1096   1.084       .  S
C1090      C1091   1.419       .  A
C1091      C1092   1.406   1_556  A
C1091      C1098   1.509       .  S
C1093      C1094   1.422       .  A
C1094      C1095   1.509       .  S
C1095      H1099   1.111       .  S
C1095      H1100   1.109       .  S
C1095      H1101   1.110       .  S
C1098      H1102   1.111       .  S
C1098      H1103   1.110       .  S
C1098      H1104   1.111       .  S
C1105      C1106   1.404       .  A
C1105      C1110   1.404       .  A
C1105      H1112   1.082       .  S
C1106      C1107   1.418       .  A
C1107      C1108   1.404       .  A
C1107      C1114   1.509       .  S
C1108      C1109   1.404       .  A
C1108      H1113   1.081       .  S
C1109      C1110   1.419       .  A
C1110      C1111   1.509       .  S
C1111      H1115   1.111       .  S
C1111      H1116   1.110       .  S
C1111      H1117   1.111       .  S
C1114      H1118   1.111       .  S
C1114      H1119   1.109       .  S
C1114      H1120   1.111       .  S
