geometry optimzed in LAMMPS
_audit_creation_date              2020-11-30 
_audit_creation_method            'lammps2cif' 
_symmetry_space_group_name_H-M    'P1' 
_symmetry_Int_Tables_number       1 
_symmetry_cell_setting            triclinic 
loop_ 
_symmetry_equiv_pos_as_xyz 
  x,y,z 
_cell_length_a                    47.60297855 
_cell_length_b                    30.624957694106985 
_cell_length_c                    28.595435965403986 
_cell_angle_alpha                 90.15020579922886 
_cell_angle_beta                  90.16515063623095 
_cell_angle_gamma                 90.03192525409877 
loop_ 
_atom_site_label 
_atom_site_type_symbol 
_atom_site_fract_x 
_atom_site_fract_y 
_atom_site_fract_z 
_atom_site_charge 
C1          C  0.11351555  0.82445650  0.37730356     0.03200
C2          C  0.10523335  0.81890273  0.42399894    -0.13000
C3          C  0.08545243  0.84711994  0.44416762     0.00700
C4          C  0.07467601  0.88185017  0.41779833    -0.11500
C5          C  0.08263846  0.88744683  0.37109299     0.03200
C6          C  0.10204865  0.85871280  0.35098776    -0.10900
H7          H  0.11373374  0.79212002  0.44427383     0.08700
H8          H  0.05917369  0.90347627  0.43300927     0.06300
H9          H  0.10778298  0.86248288  0.31444102     0.06100
C10         C  0.34623484  0.81327471  0.07108142     0.03200
C11         C  0.35583241  0.80426477  0.02550106    -0.13000
C12         C  0.37646664  0.83068628  0.00511337     0.00700
C13         C  0.38646719  0.86728248  0.02920428    -0.11500
C14         C  0.37658639  0.87732419  0.07389420     0.03200
C15         C  0.35638959  0.85041654  0.09480832    -0.10900
H16         H  0.34817166  0.77584637  0.00680572     0.08700
H17         H  0.40276102  0.88729983  0.01366157     0.06300
H18         H  0.34965594  0.85714891  0.13029635     0.06100
O19         O  0.46109779  0.82008833  0.83362029    -0.78500
C20         C  0.02546815  0.73495728  0.77982020     0.82600
O21         O  0.01617875  0.91329809  0.73761420    -0.79600
O22         O  0.02398042  0.79106775  0.63809871    -0.81100
O23         O  0.42651276  0.76566318  0.68338303    -0.80900
O24         O  0.42268377  0.81216138  0.79014948    -0.79500
Zn25       Zn  0.49403579  0.82149071  0.78976354     1.55700
O26         O  0.46577896  0.73285867  0.65941111    -0.80900
Cd27       Cd  0.43901763  0.81787816  0.72344037     1.59700
Cd28       Cd  0.49267161  0.87554811  0.69368993     1.59600
O29         O  0.42131464  0.87269811  0.69259834    -0.80900
O30         O  0.48093823  0.82089798  0.72534682    -1.91400
Cd31       Cd  0.49732220  0.76996672  0.69083599     1.59900
O32         O  0.45868570  0.91262181  0.67331283    -0.80800
O33         O  0.02000507  0.73091495  0.73633362    -0.79500
C34         C  0.02386120  0.90936841  0.77991190     0.83000
C35         C  0.43456532  0.81538123  0.82996012     0.82700
O36         O  0.01703436  0.76767206  0.80353647    -0.78400
C37         C  0.43906015  0.73630658  0.65977752     0.83500
O38         O  0.01733019  0.87577966  0.80390200    -0.78500
C39         C  0.43221892  0.90693685  0.67513574     0.83600
C40         C  0.02886217  0.82854112  0.62047537     0.84000
O41         O  0.01757299  0.86305539  0.63659983    -0.81000
C42         C  0.09747910  0.60919126  0.87102136     0.03200
C43         C  0.10623049  0.61747522  0.91721035    -0.13000
C44         C  0.12462515  0.58870601  0.93995016     0.00700
C45         C  0.13467833  0.55185633  0.91604104    -0.11500
C46         C  0.12612034  0.54328540  0.86998469     0.03200
C47         C  0.10707057  0.57147709  0.84806898    -0.10900
H48         H  0.09915778  0.64661400  0.93516268     0.08700
H49         H  0.14998297  0.53072011  0.93272214     0.06300
H50         H  0.10024786  0.56451067  0.81259155     0.06100
C51         C  0.36506480  0.61430238  0.56696733     0.03200
C52         C  0.35364517  0.62108877  0.52199962    -0.13000
C53         C  0.33194807  0.59415597  0.50528706     0.00700
C54         C  0.32187314  0.56023234  0.53318143    -0.11500
C55         C  0.33286407  0.55345903  0.57793229     0.03200
C56         C  0.35422646  0.58060731  0.59495649    -0.10900
H57         H  0.36124888  0.64757097  0.50046018     0.08700
H58         H  0.30497576  0.53959245  0.52040279     0.06300
H59         H  0.36183107  0.57619127  0.63043210     0.06100
O60         O  0.24484908  0.60828585  0.33498733    -0.78500
C61         C  0.18173691  0.69644063  0.28294776     0.82600
O62         O  0.18395439  0.52197426  0.23548458    -0.79600
O63         O  0.18619908  0.65001594  0.13634188    -0.81100
O64         O  0.28281600  0.66123126  0.18816572    -0.80900
O65         O  0.28340891  0.60672488  0.29112513    -0.79500
Zn66       Zn  0.21199500  0.60896325  0.29047696     1.55700
O67         O  0.24527886  0.70070950  0.16875295    -0.80900
Cd68       Cd  0.26689574  0.60772948  0.22376245     1.59700
Cd69       Cd  0.20921893  0.55875255  0.19283850     1.59600
O70         O  0.28049973  0.55183691  0.18915948    -0.80900
O71         O  0.22487078  0.61048213  0.22606607    -1.91400
Cd72       Cd  0.21154038  0.66498562  0.19399455     1.59900
O73         O  0.24067515  0.51801722  0.16962470    -0.80800
O74         O  0.18924234  0.70356556  0.24085228    -0.79500
C75         C  0.17856397  0.52448858  0.27896068     0.83000
C76         C  0.27149318  0.60693527  0.33102097     0.82700
O77         O  0.18876262  0.66192781  0.30476462    -0.78400
C78         C  0.27176864  0.69462807  0.16882930     0.83500
O79         O  0.18827650  0.55557550  0.30383245    -0.78500
C80         C  0.26738301  0.51979079  0.17069376     0.83600
C81         C  0.17882127  0.61369225  0.11806411     0.84000
O82         O  0.18591809  0.57727581  0.13589303    -0.81000
C83         C  0.09840160  0.31012734  0.37106022     0.03200
C84         C  0.10614792  0.34913826  0.34893163    -0.13000
C85         C  0.12677176  0.37623440  0.36841341     0.00700
C86         C  0.13832148  0.36561817  0.41201865    -0.11500
C87         C  0.13030027  0.32731376  0.43508734     0.03200
C88         C  0.11080912  0.29905488  0.41409266    -0.10900
H89         H  0.09642957  0.35803605  0.31602000     0.08700
H90         H  0.15392810  0.38680393  0.42778199     0.06300
H91         H  0.10524402  0.26866089  0.43135939     0.06100
C92         C  0.35649096  0.31710967  0.07425579     0.03200
C93         C  0.34874428  0.30968758  0.02750675    -0.13000
C94         C  0.33012071  0.33816898  0.00501660     0.00700
C95         C  0.31932540  0.37424930  0.02922819    -0.11500
C96         C  0.32658540  0.38146574  0.07609924     0.03200
C97         C  0.34502281  0.35267347  0.09866708    -0.10900
H98         H  0.35679032  0.28140617  0.00897496     0.08700
H99         H  0.30444197  0.39575646  0.01213450     0.06300
H100        H  0.35034956  0.35783240  0.13516131     0.06100
O101        O  0.19545288  0.37691365  0.79600938    -0.78500
C102        C  0.18584001  0.23627201  0.77411501     0.82600
O103        O  0.28924829  0.32170698  0.78779757    -0.79600
O104        O  0.25372322  0.23143293  0.66439453    -0.81100
O105        O  0.19366761  0.35268179  0.62857472    -0.80900
O106        O  0.19208216  0.41103794  0.72776300    -0.79500
Zn107      Zn  0.21768507  0.32231628  0.78322877     1.55700
O108        O  0.19469682  0.27983246  0.63046788    -0.80900
Cd109      Cd  0.21709094  0.37283489  0.68541042     1.59700
Cd110      Cd  0.27380078  0.32429834  0.72021803     1.59600
O111        O  0.24939841  0.41299153  0.66332643    -0.80900
O112        O  0.23180676  0.32124357  0.71995324    -1.91400
Cd113      Cd  0.21931689  0.26594438  0.68853659     1.59900
O114        O  0.28834517  0.38113306  0.68992617    -0.80800
O115        O  0.19555491  0.22743841  0.73363946    -0.79500
C116        C  0.27638852  0.31955964  0.82673353     0.83000
C117        C  0.18665070  0.40859775  0.77121964     0.82700
O118        O  0.19225974  0.27137023  0.79552595    -0.78400
C119        C  0.18665462  0.31556151  0.61197213     0.83500
O120        O  0.24967290  0.31948804  0.82907364    -0.78500
C121        C  0.27599829  0.41206902  0.66849501     0.83600
C122        C  0.28007251  0.23910687  0.66346261     0.84000
O123        O  0.29045336  0.27309379  0.68249364    -0.81000
C124        C  0.11350118  0.11450965  0.87084238     0.03200
C125        C  0.10349602  0.07694000  0.84790603    -0.13000
C126        C  0.08511873  0.04825199  0.87057598     0.00700
C127        C  0.07589051  0.05791635  0.91571200    -0.11500
C128        C  0.08464190  0.09605398  0.93843511     0.03200
C129        C  0.10366822  0.12422845  0.91618037    -0.10900
H130        H  0.10949458  0.07044623  0.81204931     0.08700
H131        H  0.06072964  0.03659916  0.93247572     0.06300
H132        H  0.11063865  0.15355630  0.93393422     0.06100
C133        C  0.34922061  0.11122203  0.56978987     0.03200
C134        C  0.35723012  0.07479029  0.59619594    -0.13000
C135        C  0.37433150  0.04243980  0.57646912     0.00700
C136        C  0.38372665  0.04714731  0.53031501    -0.11500
C137        C  0.37620747  0.08393412  0.50403803     0.03200
C138        C  0.35867082  0.11575956  0.52367681    -0.10900
H139        H  0.35047796  0.07192688  0.63218247     0.08700
H140        H  0.39807919  0.02329478  0.51561869     0.06300
H141        H  0.35320859  0.14464003  0.50377728     0.06100
O142        O  0.01387708  0.16185535  0.29740879    -0.78500
C143        C  0.43262238  0.10376513  0.32649210     0.82600
O144        O  0.01870721  0.02052755  0.22986646    -0.79600
O145        O  0.42254634  0.04879671  0.18551731    -0.81100
O146        O  0.45632299  0.19934704  0.16404705    -0.80900
O147        O  0.01528383  0.20058924  0.23153667    -0.79500
Zn148      Zn  0.49124318  0.10868478  0.28370597     1.55700
O149        O  0.41945997  0.15885654  0.18460086    -0.80900
Cd150      Cd  0.49088605  0.16341591  0.18630058     1.59700
Cd151      Cd  0.49409586  0.05824501  0.18659509     1.59600
O152        O  0.01576669  0.14889937  0.12813263    -0.80900
O153        O  0.47805490  0.10941568  0.21964094    -1.91400
Cd154      Cd  0.43601178  0.10539944  0.21922886     1.59900
O155        O  0.01826413  0.07646192  0.13073239    -0.80800
O156        O  0.42011168  0.10399793  0.28703177    -0.79500
C157        C  0.02507074  0.02499346  0.27285129     0.83000
C158        C  0.02230556  0.19463808  0.27413150     0.82700
O159        O  0.45929729  0.10583013  0.32906203    -0.78400
C160        C  0.42982250  0.19287185  0.16565001     0.83500
O161        O  0.01599663  0.05700615  0.29682770    -0.78500
C162        C  0.02490779  0.11265873  0.11213614     0.83600
C163        C  0.43604050  0.01832569  0.16496104     0.84000
O164        O  0.46264755  0.01900874  0.16197285    -0.81000
C165        C  0.43018593  0.11251596  0.41283101    -0.09100
C166        C  0.41644534  0.10080449  0.37090466     0.07100
C167        C  0.38847616  0.08494574  0.37340042    -0.02900
C168        C  0.37533907  0.08055261  0.41702366    -0.07300
C169        C  0.38956341  0.09144429  0.45837911     0.06200
C170        C  0.41703576  0.10789473  0.45608519    -0.02400
Br171      Br  0.43750013  0.12419101  0.51142513    -0.02100
H172        H  0.45140287  0.12503351  0.41221936     0.10100
H173        H  0.35422587  0.06767440  0.41879387     0.08100
Br174      Br  0.36731871  0.06612342  0.31970570    -0.02500
C175        C  0.03907427  0.14299470  0.03473236    -0.09100
C176        C  0.04320797  0.11194031  0.07025767     0.07100
C177        C  0.06348252  0.07874061  0.06345967    -0.02900
C178        C  0.07804937  0.07605724  0.02125109    -0.07300
C179        C  0.07289232  0.10571899  0.98506187     0.06200
C180        C  0.05346735  0.13976316  0.99213189    -0.02400
Br181      Br  0.04364454  0.17953293  0.94298521    -0.02100
H182        H  0.02348617  0.16838269  0.03903505     0.10100
H183        H  0.09281585  0.04965985  0.01594078     0.08100
Br184      Br  0.07250458  0.03566100  0.10993575    -0.02500
C185        C  0.28634375  0.17642144  0.60902555    -0.09100
C186        C  0.29876638  0.20776633  0.63877622     0.07100
C187        C  0.32847371  0.20805284  0.64356729    -0.02900
C188        C  0.34456705  0.17662373  0.62022338    -0.07300
C189        C  0.33182811  0.14529823  0.59143750     0.06200
C190        C  0.30261442  0.14563649  0.58533765    -0.02400
Br191      Br  0.28408356  0.10407525  0.54553816    -0.02100
H192        H  0.26382425  0.17572005  0.60393903     0.10100
H193        H  0.36713679  0.17636666  0.62478489     0.08100
Br194      Br  0.34896811  0.24899979  0.68174385    -0.02500
C195        C  0.12510927  0.18941794  0.84340948    -0.09100
C196        C  0.13250407  0.14512746  0.84603041     0.07100
C197        C  0.15737439  0.13090675  0.82374564    -0.02900
C198        C  0.17406311  0.16081173  0.79934882    -0.07300
C199        C  0.16678828  0.20512202  0.79736928     0.06200
C200        C  0.14193812  0.21931503  0.81944713    -0.02400
Br201      Br  0.12907529  0.27864597  0.81563789    -0.02100
H202        H  0.10581917  0.20075513  0.85950482     0.10100
H203        H  0.19331989  0.14962109  0.78303199     0.08100
Br204      Br  0.17072224  0.07186755  0.82805645    -0.02500
C205        C  0.31599750  0.34678944  0.87535205    -0.09100
C206        C  0.29271993  0.31889069  0.87059773     0.07100
C207        C  0.28426889  0.29337091  0.90910311    -0.02900
C208        C  0.29775095  0.29849789  0.95223723    -0.07300
C209        C  0.31970340  0.32857222  0.95762372     0.06200
C210        C  0.32942216  0.35187077  0.91860322    -0.02400
Br211      Br  0.36039822  0.39170268  0.92340501    -0.02100
H212        H  0.32295985  0.36619526  0.84592849     0.10100
H213        H  0.29049318  0.27995848  0.98211593     0.08100
Br214      Br  0.25489033  0.25050728  0.90458175    -0.02500
C215        C  0.36486483  0.25985041  0.13379411    -0.09100
C216        C  0.37552571  0.28644950  0.09826151     0.07100
C217        C  0.40402369  0.28327447  0.08607213    -0.02900
C218        C  0.42133431  0.25306029  0.10878430    -0.07300
C219        C  0.41069002  0.22544084  0.14386838     0.06200
C220        C  0.38204434  0.22951379  0.15662582    -0.02400
Br221      Br  0.36487614  0.19651639  0.20600406    -0.02100
H222        H  0.34303036  0.26257382  0.14362051     0.10100
H223        H  0.44311594  0.25092849  0.09853382     0.08100
Br224      Br  0.42037625  0.32059416  0.03968693    -0.02500
C225        C  0.13390651  0.34644115  0.51864940    -0.09100
C226        C  0.14184173  0.31870738  0.48199775     0.07100
C227        C  0.16261206  0.28683101  0.48975656    -0.02900
C228        C  0.17608222  0.28464573  0.53330901    -0.07300
C229        C  0.16929221  0.31425737  0.56917836     0.06200
C230        C  0.14728284  0.34435409  0.56204915    -0.02400
Br231      Br  0.13423788  0.38292039  0.61040259    -0.02100
H232        H  0.11765317  0.37071860  0.51299976     0.10100
H233        H  0.19289718  0.26123870  0.53833722     0.08100
Br234      Br  0.17482156  0.24829050  0.44089527    -0.02500
C235        C  0.03570018  0.23752928  0.34419403    -0.09100
C236        C  0.04119243  0.22577780  0.29761695     0.07100
C237        C  0.06564868  0.24149647  0.27573759    -0.02900
C238        C  0.08405161  0.26842363  0.30061259    -0.07300
C239        C  0.07853963  0.28040219  0.34713949     0.06200
C240        C  0.05394985  0.26495865  0.36889774    -0.02400
Br241      Br  0.04332181  0.28216605  0.43098006    -0.02100
H242        H  0.01690108  0.22562686  0.36133567     0.10100
H243        H  0.10304486  0.27976775  0.28361428     0.08100
Br244      Br  0.07613182  0.22488866  0.21334930    -0.02500
C245        C  0.15998341  0.44880581  0.27678220    -0.09100
C246        C  0.16199592  0.48886970  0.30081644     0.07100
C247        C  0.14978341  0.49231833  0.34575157    -0.02900
C248        C  0.13755340  0.45558599  0.36640437    -0.07300
C249        C  0.13693294  0.41519991  0.34313794     0.06200
C250        C  0.14778178  0.41221987  0.29743833    -0.02400
Br251      Br  0.14920100  0.35836740  0.26282193    -0.02100
H252        H  0.16910243  0.44512317  0.24242046     0.10100
H253        H  0.12881615  0.45838163  0.40114058     0.08100
Br254      Br  0.14847734  0.54568536  0.38109254    -0.02500
C255        C  0.30648087  0.49390939  0.12029076    -0.09100
C256        C  0.28350020  0.48389294  0.14906695     0.07100
C257        C  0.27574411  0.43976448  0.15523021    -0.02900
C258        C  0.29058534  0.40681817  0.13210869    -0.07300
C259        C  0.31293900  0.41702598  0.10233455     0.06200
C260        C  0.32098673  0.46087675  0.09656024    -0.02400
Br261      Br  0.35147311  0.47694645  0.05640099    -0.02100
H262        H  0.31265050  0.52760814  0.11516949     0.10100
H263        H  0.28437784  0.37307218  0.13676888     0.08100
Br264      Br  0.24577638  0.42229072  0.19598147    -0.02500
C265        C  0.28265392  0.49118105  0.65436711    -0.09100
C266        C  0.29276118  0.44833928  0.64929264     0.07100
C267        C  0.31795690  0.44114480  0.62445849    -0.02900
C268        C  0.33163306  0.47629743  0.60319001    -0.07300
C269        C  0.32086279  0.51869124  0.60698746     0.06200
C270        C  0.29668458  0.52629706  0.63384138    -0.02400
Br271      Br  0.28176173  0.58398569  0.64210610    -0.02100
H272        H  0.26363143  0.49729614  0.67396735     0.10100
H273        H  0.35014886  0.47035603  0.58220568     0.08100
Br274      Br  0.33335324  0.38391145  0.61472236    -0.02500
C275        C  0.27954973  0.62945614  0.41349878    -0.09100
C276        C  0.28872281  0.60581413  0.37419499     0.07100
C277        C  0.31323493  0.58002283  0.37799081    -0.02900
C278        C  0.32799630  0.57850518  0.42040492    -0.07300
C279        C  0.31856287  0.60182881  0.45952528     0.06200
C280        C  0.29414711  0.62742626  0.45593527    -0.02400
Br281      Br  0.27918265  0.65816718  0.50885863    -0.02100
H282        H  0.26065428  0.64907129  0.41144525     0.10100
H283        H  0.34622282  0.55753408  0.42349824     0.08100
Br284      Br  0.32576299  0.54223529  0.32860013    -0.02500
C285        C  0.15667996  0.51929216  0.80492484    -0.09100
C286        C  0.13962951  0.50797751  0.84293723     0.07100
C287        C  0.13710635  0.46383871  0.85570704    -0.02900
C288        C  0.15217144  0.43193349  0.83130755    -0.07300
C289        C  0.16983712  0.44323555  0.79390164     0.06200
C290        C  0.17183932  0.48752556  0.78050331    -0.02400
Br291      Br  0.19665543  0.50764575  0.73219588    -0.02100
H292        H  0.15895708  0.55323894  0.79523795     0.10100
H293        H  0.15010544  0.39813251  0.84171044     0.08100
Br294      Br  0.11285460  0.44545095  0.90533962    -0.02500
C295        C  0.15261846  0.63502566  0.99435909    -0.09100
C296        C  0.13518648  0.59860322  0.98743548     0.07100
C297        C  0.12990937  0.57034712  0.02506599    -0.02900
C298        C  0.14319246  0.57743161  0.06800794    -0.07300
C299        C  0.16192630  0.61246786  0.07449601     0.06200
C300        C  0.16607801  0.64215004  0.03736897    -0.02400
Br301      Br  0.19195545  0.69016305  0.04120223    -0.02100
H302        H  0.15684758  0.65687748  0.96541988     0.10100
H303        H  0.13940057  0.55461445  0.09624006     0.08100
Br304      Br  0.10487294  0.52147761  0.01942747    -0.02500
C305        C  0.42867246  0.66113361  0.63097654    -0.09100
C306        C  0.42175357  0.70566716  0.63205026     0.07100
C307        C  0.39760536  0.72013663  0.60788224    -0.02900
C308        C  0.38006015  0.68996402  0.58564526    -0.07300
C309        C  0.38605977  0.64513643  0.58667228     0.06200
C310        C  0.41103702  0.63085630  0.60866230    -0.02400
Br311      Br  0.42248962  0.57074103  0.60847710    -0.02100
H312        H  0.44738618  0.64969494  0.64862337     0.10100
H313        H  0.36119010  0.70153311  0.56852430     0.08100
Br314      Br  0.38782585  0.78084398  0.60263899    -0.02500
C315        C  0.06739550  0.68731039  0.78067864    -0.09100
C316        C  0.04282777  0.70143875  0.80294379     0.07100
C317        C  0.03600607  0.68441911  0.84727630    -0.02900
C318        C  0.05386689  0.65405263  0.86854796    -0.07300
C319        C  0.07876194  0.64046670  0.84663215     0.06200
C320        C  0.08555312  0.65770390  0.80229025    -0.02400
Br321      Br  0.12041384  0.64546503  0.77119620    -0.02100
H322        H  0.07307818  0.70072969  0.74693258     0.10100
H323        H  0.04824502  0.64085901  0.90241899     0.08100
Br324      Br  0.00204133  0.69991352  0.87937753    -0.02500
C325        C  0.39518978  0.92983138  0.61908037    -0.09100
C326        C  0.41394430  0.94086653  0.65517082     0.07100
C327        C  0.41679308  0.98488150  0.66866730    -0.02900
C328        C  0.40260783  0.01740071  0.64395506    -0.07300
C329        C  0.38543725  0.00670981  0.60569179     0.06200
C330        C  0.38099956  0.96246380  0.59421506    -0.02400
Br331      Br  0.35585499  0.94523743  0.54497898    -0.02100
H332        H  0.39251252  0.89602299  0.60891372     0.10100
H333        H  0.40576303  0.05124883  0.65359962     0.08100
Br334      Br  0.43933851  0.00212652  0.72116027    -0.02500
C335        C  0.05852744  0.93527175  0.83930793    -0.09100
C336        C  0.04068835  0.94485592  0.80141133     0.07100
C337        C  0.03926171  0.98845659  0.78502069    -0.03300
C338        C  0.05508257  0.02098692  0.80678842    -0.07300
C339        C  0.07222800  0.01148480  0.84514110     0.06200
C340        C  0.07422372  0.96818157  0.86117859    -0.02400
Br341      Br  0.09838512  0.95247422  0.91225299    -0.02100
H342        H  0.06027978  0.90211668  0.85203999     0.10100
H343        H  0.05307850  0.05442040  0.79491502     0.08100
Br344      Br  0.01476577  0.00766435  0.73573534    -0.02500
C345        C  0.41880347  0.90733266  0.11201753    -0.09100
C346        C  0.39047160  0.91262460  0.10029801     0.07100
C347        C  0.37689332  0.95214552  0.11081126    -0.02900
C348        C  0.39188420  0.98591820  0.13266777    -0.07300
C349        C  0.42057348  0.98110558  0.14376934     0.06200
C350        C  0.43394764  0.94082037  0.13350771    -0.02400
Br351      Br  0.47255214  0.92776128  0.14812781    -0.02100
H352        H  0.42930707  0.87690300  0.10385479     0.10100
H353        H  0.38122997  0.01640645  0.13978965     0.08100
Br354      Br  0.33858041  0.96233565  0.09310397    -0.02500
C355        C  0.37504997  0.82773280  0.91837916    -0.09100
C356        C  0.38949360  0.81925919  0.96007371     0.07100
C357        C  0.41767098  0.80565970  0.95835822    -0.02900
C358        C  0.43142777  0.80295079  0.91546628    -0.07300
C359        C  0.41764827  0.81384635  0.87349447     0.06200
C360        C  0.38878972  0.82521350  0.87516793    -0.02400
Br361      Br  0.36726748  0.84151439  0.82103881    -0.02100
H362        H  0.35340258  0.83855731  0.91965424     0.10100
H363        H  0.45330704  0.79325071  0.91519827     0.08100
Br364      Br  0.43852666  0.79183923  0.01398003    -0.02500
C365        C  0.30192152  0.79850731  0.11464303    -0.09100
C366        C  0.32700503  0.78266009  0.09525859     0.07100
C367        C  0.33395698  0.73826529  0.10129506    -0.02900
C368        C  0.31572630  0.71061070  0.12545671    -0.07300
C369        C  0.29038563  0.72611374  0.14438599     0.06200
C370        C  0.28363871  0.77083112  0.13899195    -0.02400
Br371      Br  0.25085208  0.79706068  0.16619218    -0.02100
H372        H  0.29659757  0.83269057  0.11099249     0.10100
H373        H  0.32147004  0.67661598  0.12937033     0.08100
Br374      Br  0.36889389  0.71391124  0.08017156    -0.02500
C375        C  0.07383385  0.96609781  0.35710679    -0.09100
C376        C  0.06973238  0.92261612  0.34325217     0.07100
C377        C  0.05226441  0.91336657  0.30466501    -0.02900
C378        C  0.03885906  0.94743925  0.28115417    -0.07300
C379        C  0.04217585  0.99096194  0.29583717     0.06200
C380        C  0.06037165  0.00026249  0.33371112    -0.02400
Br381      Br  0.06859406  0.05868538  0.35422932    -0.02100
H382        H  0.08747127  0.97343558  0.38649282     0.10100
H383        H  0.02480955  0.93962183  0.25245702     0.08100
Br384      Br  0.04403157  0.85470601  0.28512521    -0.02500
C385        C  0.07589853  0.87345364  0.52475507    -0.09100
C386        C  0.07453526  0.83950556  0.49179359     0.07100
C387        C  0.06041870  0.80056296  0.50343739    -0.02900
C388        C  0.04700407  0.79692693  0.54663070    -0.07300
C389        C  0.04696407  0.83177417  0.57864413     0.06200
C390        C  0.06243549  0.86990059  0.56798376    -0.02400
Br391      Br  0.06655860  0.91794636  0.61087457    -0.02100
H392        H  0.08702790  0.90326982  0.51636806     0.10100
H393        H  0.03524113  0.76749185  0.55408331     0.08100
Br394      Br  0.05607977  0.75301214  0.46010847    -0.02500
C395        C  0.12358020  0.74815360  0.35385885    -0.09100
C396        C  0.13201048  0.79203051  0.35468703     0.07100
C397        C  0.15713985  0.80423209  0.33225223    -0.02900
C398        C  0.17294825  0.77277515  0.30842973    -0.07300
C399        C  0.16436463  0.72895656  0.30739134     0.06200
C400        C  0.13951414  0.71666802  0.33057803    -0.02400
Br401      Br  0.12535862  0.65797459  0.32882467    -0.02100
H402        H  0.10410177  0.73849266  0.37055417     0.10100
H403        H  0.19231560  0.78239757  0.29139183     0.08100
Br404      Br  0.17145646  0.86277911  0.33535831    -0.02500
C405        C  0.61349292  0.82442117  0.37732573     0.03200
C406        C  0.60520787  0.81886417  0.42401914    -0.13000
C407        C  0.58543000  0.84708551  0.44418941     0.00700
C408        C  0.57465702  0.88182042  0.41782264    -0.11500
C409        C  0.58262069  0.88741860  0.37111774     0.03200
C410        C  0.60202983  0.85868262  0.35101250    -0.10900
H411        H  0.61370457  0.79207687  0.44429216     0.08700
H412        H  0.55915671  0.90344862  0.43303493     0.06300
H413        H  0.60776612  0.86245496  0.31446653     0.06100
C414        C  0.84624787  0.81323958  0.07106925     0.03200
C415        C  0.85584612  0.80423443  0.02548723    -0.13000
C416        C  0.87649109  0.83064535  0.00511167     0.00700
C417        C  0.88650137  0.86722694  0.02921761    -0.11500
C418        C  0.87662138  0.87726339  0.07390990     0.03200
C419        C  0.85641416  0.85036551  0.09481046    -0.10900
H420        H  0.84817718  0.77582745  0.00678157     0.08700
H421        H  0.90279956  0.88723991  0.01368175     0.06300
H422        H  0.84967918  0.85709401  0.13029954     0.06100
O423        O  0.96110516  0.82007004  0.83358685    -0.78500
C424        C  0.52545871  0.73496436  0.77985556     0.82600
O425        O  0.51617400  0.91330246  0.73763075    -0.79600
O426        O  0.52396715  0.79105201  0.63813406    -0.81100
O427        O  0.92652116  0.76568170  0.68335057    -0.80900
O428        O  0.92268780  0.81216903  0.79012144    -0.79500
Zn429      Zn  0.99404223  0.82148192  0.78973131     1.55700
O430        O  0.96578329  0.73287127  0.65936631    -0.80900
Cd431      Cd  0.93902618  0.81789099  0.72341270     1.59700
Cd432      Cd  0.99268238  0.87555070  0.69366496     1.59600
O433        O  0.92132835  0.87271709  0.69257211    -0.80900
O434        O  0.98094740  0.82089755  0.72531443    -1.91400
Cd435      Cd  0.99733311  0.76996887  0.69079728     1.59900
O436        O  0.95870225  0.91263379  0.67328750    -0.80800
O437        O  0.51999336  0.73092146  0.73637074    -0.79500
C438        C  0.52386313  0.90937245  0.77992584     0.83000
C439        C  0.93457195  0.81537279  0.82993152     0.82700
O440        O  0.51702624  0.76767882  0.80357390    -0.78400
C441        C  0.93906431  0.73632555  0.65973828     0.83500
O442        O  0.51733200  0.87578626  0.80392053    -0.78500
C443        C  0.93223530  0.90695418  0.67510998     0.83600
C444        C  0.52884756  0.82852178  0.62050288     0.84000
O445        O  0.51755930  0.86303973  0.63662156    -0.81000
C446        C  0.59748779  0.60919453  0.87100091     0.03200
C447        C  0.60624366  0.61747622  0.91718763    -0.13000
C448        C  0.62464495  0.58871097  0.93991709     0.00700
C449        C  0.63470306  0.55187080  0.91599791    -0.11500
C450        C  0.62613894  0.54330030  0.86994477     0.03200
C451        C  0.60708061  0.57148546  0.84804050    -0.10900
H452        H  0.59916768  0.64660890  0.93514760     0.08700
H453        H  0.65001273  0.53073718  0.93267199     0.06300
H454        H  0.60025117  0.56451689  0.81256837     0.06100
C455        C  0.86503381  0.61435090  0.56696202     0.03200
C456        C  0.85361533  0.62113524  0.52199344    -0.13000
C457        C  0.83191360  0.59420897  0.50528624     0.00700
C458        C  0.82183092  0.56029677  0.53318831    -0.11500
C459        C  0.83282153  0.55352480  0.57793960     0.03200
C460        C  0.85419042  0.58066415  0.59495715    -0.10900
H461        H  0.86122450  0.64760963  0.50044860     0.08700
H462        H  0.80493096  0.53966078  0.52041249     0.06300
H463        H  0.86179730  0.57624710  0.63043213     0.06100
O464        O  0.74483116  0.60829686  0.33496957    -0.78500
C465        C  0.68171241  0.69641876  0.28294080     0.82600
O466        O  0.68396159  0.52192944  0.23548098    -0.79600
O467        O  0.68618812  0.65000723  0.13633664    -0.81100
O468        O  0.78280029  0.66122501  0.18814391    -0.80900
O469        O  0.78339317  0.60674248  0.29111231    -0.79500
Zn470      Zn  0.71197961  0.60894926  0.29045940     1.55700
O471        O  0.74526567  0.70071366  0.16874255    -0.80900
Cd472      Cd  0.76688284  0.60772789  0.22374913     1.59700
Cd473      Cd  0.70921037  0.55873682  0.19282668     1.59600
O474        O  0.78049526  0.55183432  0.18915574    -0.80900
O475        O  0.72485775  0.61047321  0.22605150    -1.91400
Cd476      Cd  0.71152763  0.66498275  0.19398830     1.59900
O477        O  0.74067349  0.51802237  0.16959194    -0.80800
O478        O  0.68922533  0.70355597  0.24085104    -0.79500
C479        C  0.67857663  0.52444382  0.27895972     0.83000
C480        C  0.77147537  0.60695608  0.33100621     0.82700
O481        O  0.68873473  0.66189951  0.30474861    -0.78400
C482        C  0.77175511  0.69462492  0.16881086     0.83500
O483        O  0.68828109  0.55554357  0.30382109    -0.78500
C484        C  0.76738140  0.51979340  0.17067390     0.83600
C485        C  0.67880953  0.61368363  0.11805923     0.84000
O486        O  0.68590348  0.57726612  0.13588990    -0.81000
C487        C  0.59839746  0.31010674  0.37108516     0.03200
C488        C  0.60616405  0.34910924  0.34896085    -0.13000
C489        C  0.62680066  0.37617940  0.36844635     0.00700
C490        C  0.63834303  0.36554534  0.41205280    -0.11500
C491        C  0.63029982  0.32724898  0.43511818     0.03200
C492        C  0.61079481  0.29901690  0.41411953    -0.10900
H493        H  0.59645107  0.35801989  0.31604817     0.08700
H494        H  0.65395831  0.38671212  0.42782134     0.06300
H495        H  0.60521121  0.26863007  0.43138401     0.06100
C496        C  0.85648351  0.31709964  0.07423649     0.03200
C497        C  0.84875197  0.30970064  0.02747699    -0.13000
C498        C  0.83014708  0.33820556  0.00497832     0.00700
C499        C  0.81935460  0.37428652  0.02919403    -0.11500
C500        C  0.82659776  0.38147822  0.07607746     0.03200
C501        C  0.84501716  0.35266209  0.09865212    -0.10900
H502        H  0.85679681  0.28142091  0.00894197     0.08700
H503        H  0.80448374  0.39580961  0.01209533     0.06300
H504        H  0.85033240  0.35780280  0.13515401     0.06100
O505        O  0.69547767  0.37694152  0.79599154    -0.78500
C506        C  0.68586292  0.23628908  0.77419287     0.82600
O507        O  0.78927482  0.32172775  0.78774828    -0.79600
O508        O  0.75372704  0.23140817  0.66442127    -0.81100
O509        O  0.69366316  0.35262092  0.62857010    -0.80900
O510        O  0.69207492  0.41101886  0.72772220    -0.79500
Zn511      Zn  0.71770708  0.32233984  0.78323156     1.55700
O512        O  0.69468446  0.27977239  0.63051700    -0.80900
Cd513      Cd  0.71708812  0.37280966  0.68538534     1.59700
Cd514      Cd  0.77380793  0.32430961  0.72018157     1.59600
O515        O  0.74938451  0.41297885  0.66328374    -0.80900
O516        O  0.73181462  0.32123936  0.71994884    -1.91400
Cd517      Cd  0.71932257  0.26592065  0.68857493     1.59900
O518        O  0.78833870  0.38115339  0.68989341    -0.80800
O519        O  0.69557455  0.22743661  0.73371956    -0.79500
C520        C  0.77642322  0.31959766  0.82669242     0.83000
C521        C  0.68665909  0.40860354  0.77118569     0.82700
O522        O  0.69228153  0.27140065  0.79557991    -0.78400
C523        C  0.68664250  0.31549183  0.61199988     0.83500
O524        O  0.74970810  0.31953199  0.82905111    -0.78500
C525        C  0.77598438  0.41207936  0.66845838     0.83600
C526        C  0.78007328  0.23910377  0.66344915     0.84000
O527        O  0.79045350  0.27310959  0.68244301    -0.81000
C528        C  0.61351838  0.11450441  0.87088695     0.03200
C529        C  0.60352166  0.07693816  0.84793109    -0.13000
C530        C  0.58514230  0.04823841  0.87058089     0.00700
C531        C  0.57590377  0.05788777  0.91571475    -0.11500
C532        C  0.58464499  0.09602228  0.93845408     0.03200
C533        C  0.60367341  0.12420770  0.91622093    -0.10900
H534        H  0.60952906  0.07045570  0.81207569     0.08700
H535        H  0.56074202  0.03656134  0.93246340     0.06300
H536        H  0.61063682  0.15353202  0.93398927     0.06100
C537        C  0.84921957  0.11122694  0.56976733     0.03200
C538        C  0.85723328  0.07479462  0.59617054    -0.13000
C539        C  0.87434272  0.04245421  0.57644278     0.00700
C540        C  0.88374315  0.04717340  0.53029383    -0.11500
C541        C  0.87622067  0.08396126  0.50402206     0.03200
C542        C  0.85867495  0.11577502  0.52365865    -0.10900
H543        H  0.85047931  0.07192390  0.63215415     0.08700
H544        H  0.89810076  0.02332942  0.51559786     0.06300
H545        H  0.85321064  0.14465658  0.50376186     0.06100
O546        O  0.51386910  0.16185816  0.29742581    -0.78500
C547        C  0.93262864  0.10377821  0.32647370     0.82600
O548        O  0.51868442  0.02050077  0.22989279    -0.79600
O549        O  0.92256343  0.04875347  0.18552658    -0.81100
O550        O  0.95630876  0.19934073  0.16404054    -0.80900
O551        O  0.51529064  0.20057453  0.23154174    -0.79500
Zn552      Zn  0.99124657  0.10868965  0.28368664     1.55700
O553        O  0.91945362  0.15881873  0.18456215    -0.80900
Cd554      Cd  0.99088121  0.16342749  0.18629096     1.59700
Cd555      Cd  0.99410834  0.05825623  0.18657188     1.59600
O556        O  0.51576683  0.14887205  0.12814337    -0.80900
O557        O  0.97805850  0.10941782  0.21962205    -1.91400
Cd558      Cd  0.93601629  0.10537949  0.21921017     1.59900
O559        O  0.51825736  0.07643478  0.13075719    -0.80800
O560        O  0.92011735  0.10399930  0.28701384    -0.79500
C561        C  0.52505903  0.02497494  0.27287240     0.83000
C562        C  0.52230322  0.19463391  0.27414207     0.82700
O563        O  0.95930324  0.10584457  0.32904236    -0.78400
C564        C  0.92980953  0.19284535  0.16562421     0.83500
O565        O  0.51599708  0.05699984  0.29684397    -0.78500
C566        C  0.52490338  0.11262659  0.11215272     0.83600
C567        C  0.93606257  0.01828902  0.16496752     0.84000
O568        O  0.96266875  0.01899302  0.16196413    -0.81000
C569        C  0.93019643  0.11254092  0.41281111    -0.09100
C570        C  0.91645305  0.10082813  0.37088744     0.07100
C571        C  0.88848346  0.08497282  0.37338751    -0.02900
C572        C  0.87534756  0.08058777  0.41701159    -0.07300
C573        C  0.88957480  0.09147737  0.45836424     0.06200
C574        C  0.91704885  0.10792085  0.45606741    -0.02400
Br575      Br  0.93752103  0.12420101  0.51140511    -0.02100
H576        H  0.95141448  0.12505365  0.41219619     0.10100
H577        H  0.85423380  0.06771153  0.41878530     0.08100
Br578      Br  0.86732559  0.06613475  0.31969991    -0.02500
C579        C  0.53906597  0.14295101  0.03474372    -0.09100
C580        C  0.54319950  0.11189768  0.07027014     0.07100
C581        C  0.56346963  0.07869181  0.06346990    -0.02900
C582        C  0.57803715  0.07600822  0.02126211    -0.07300
C583        C  0.57288412  0.10567411  0.98507543     0.06200
C584        C  0.55345856  0.13971761  0.99214347    -0.02400
Br585      Br  0.54363456  0.17948482  0.94299492    -0.02100
H586        H  0.52347941  0.16834070  0.03904632     0.10100
H587        H  0.59280319  0.04960945  0.01595174     0.08100
Br588      Br  0.57248588  0.03560559  0.10994198    -0.02500
C589        C  0.78634894  0.17649377  0.60891562    -0.09100
C590        C  0.79876557  0.20776839  0.63875703     0.07100
C591        C  0.82846721  0.20799383  0.64363435    -0.02900
C592        C  0.84456016  0.17656207  0.62029556    -0.07300
C593        C  0.83182775  0.14530263  0.59141895     0.06200
C594        C  0.80262115  0.14571405  0.58522080    -0.02400
Br595      Br  0.78410122  0.10426284  0.54527542    -0.02100
H596        H  0.76383455  0.17584961  0.60375942     0.10100
H597        H  0.86712483  0.17625456  0.62492672     0.08100
Br598      Br  0.84894984  0.24885792  0.68192944    -0.02500
C599        C  0.62513379  0.18942586  0.84349442    -0.09100
C600        C  0.63252725  0.14513360  0.84610194     0.07100
C601        C  0.65740378  0.13092183  0.82383106    -0.02900
C602        C  0.67409424  0.16083266  0.79944655    -0.07300
C603        C  0.66681737  0.20514218  0.79746853     0.06200
C604        C  0.64196601  0.21933053  0.81954757    -0.02400
Br605      Br  0.62910339  0.27866268  0.81575603    -0.02100
H606        H  0.60584083  0.20075830  0.85958520     0.10100
H607        H  0.69335307  0.14964538  0.78313223     0.08100
Br608      Br  0.67075646  0.07188575  0.82814312    -0.02500
C609        C  0.81601298  0.34688406  0.87531788    -0.09100
C610        C  0.79276211  0.31893477  0.87054630     0.07100
C611        C  0.78433727  0.29336877  0.90903041    -0.02900
C612        C  0.79781508  0.29849733  0.95216735    -0.07300
C613        C  0.81973740  0.32862165  0.95757698     0.06200
C614        C  0.82943383  0.35196800  0.91857271    -0.02400
Br615      Br  0.86037763  0.39185810  0.92339912    -0.02100
H616        H  0.82295526  0.36632383  0.84590740     0.10100
H617        H  0.79057586  0.27991956  0.98203119     0.08100
Br618      Br  0.75499954  0.25044153  0.90446918    -0.02500
C619        C  0.86483681  0.25977507  0.13371372    -0.09100
C620        C  0.87551136  0.28642736  0.09823868     0.07100
C621        C  0.90401883  0.28329619  0.08610033    -0.02900
C622        C  0.92132724  0.25307580  0.10880666    -0.07300
C623        C  0.91067226  0.22540709  0.14383761     0.06200
C624        C  0.88201448  0.22943250  0.15654201    -0.02400
Br625      Br  0.86482436  0.19636230  0.20584348    -0.02100
H626        H  0.84299364  0.26246422  0.14350007     0.10100
H627        H  0.94311707  0.25098167  0.09859532     0.08100
Br628      Br  0.92038594  0.32068587  0.03979421    -0.02500
C629        C  0.63389509  0.34636607  0.51868204    -0.09100
C630        C  0.64182827  0.31862770  0.48203375     0.07100
C631        C  0.66258485  0.28673142  0.48980307    -0.02900
C632        C  0.67605312  0.28454397  0.53335724    -0.07300
C633        C  0.66927124  0.31416903  0.56921795     0.06200
C634        C  0.64726672  0.34427293  0.56208460    -0.02400
Br635      Br  0.63422514  0.38284454  0.61043579    -0.02100
H636        H  0.61764878  0.37065393  0.51302659     0.10100
H637        H  0.69286169  0.26112757  0.53839154     0.08100
Br638      Br  0.67477796  0.24816343  0.44095530    -0.02500
C639        C  0.53567903  0.23755767  0.34419030    -0.09100
C640        C  0.54118595  0.22577889  0.29762617     0.07100
C641        C  0.56565195  0.24147660  0.27575963    -0.02900
C642        C  0.58405340  0.26840230  0.30063828    -0.07300
C643        C  0.57852940  0.28040102  0.34715461     0.06200
C644        C  0.55392692  0.26498747  0.36889640    -0.02400
Br645      Br  0.54328276  0.28223619  0.43095776    -0.02100
H646        H  0.51687054  0.22567434  0.36132024     0.10100
H647        H  0.60305582  0.27972669  0.28365283     0.08100
Br648      Br  0.57615040  0.22484082  0.21338712    -0.02500
C649        C  0.66000617  0.44875073  0.27680127    -0.09100
C650        C  0.66202337  0.48881548  0.30083324     0.07100
C651        C  0.64982836  0.49225878  0.34578312    -0.02900
C652        C  0.63760657  0.45552443  0.36644606    -0.07300
C653        C  0.63697522  0.41514086  0.34317610     0.06200
C654        C  0.64781132  0.41216302  0.29746745    -0.02400
Br655      Br  0.64921654  0.35831168  0.26284703    -0.02100
H656        H  0.66911305  0.44507079  0.24243042     0.10100
H657        H  0.62887928  0.45831895  0.40118928     0.08100
Br658      Br  0.64853160  0.54562265  0.38113165    -0.02500
C659        C  0.80650158  0.49391352  0.12031212    -0.09100
C660        C  0.78350183  0.48389696  0.14904716     0.07100
C661        C  0.77573172  0.43976930  0.15517226    -0.02900
C662        C  0.79057634  0.40682601  0.13205165    -0.07300
C663        C  0.81294854  0.41703469  0.10231657     0.06200
C664        C  0.82101179  0.46088355  0.09658312    -0.02400
Br665      Br  0.85152576  0.47695391  0.05648214    -0.02100
H666        H  0.81268345  0.52761069  0.11522125     0.10100
H667        H  0.78435716  0.37308135  0.13668184     0.08100
Br668      Br  0.74573943  0.42228962  0.19587092    -0.02500
C669        C  0.78258044  0.49119286  0.65426515    -0.09100
C670        C  0.79273616  0.44837033  0.64926852     0.07100
C671        C  0.81797252  0.44121712  0.62453255    -0.02900
C672        C  0.83164118  0.47638594  0.60328073    -0.07300
C673        C  0.82082140  0.51875535  0.60699338     0.06200
C674        C  0.79660077  0.52632463  0.63375218    -0.02400
Br675      Br  0.78161078  0.58398400  0.64191166    -0.02100
H676        H  0.76352827  0.49728084  0.67379475     0.10100
H677        H  0.85019057  0.47047268  0.58236927     0.08100
Br678      Br  0.83344309  0.38401653  0.61490269    -0.02500
C679        C  0.77952569  0.62949579  0.41347833    -0.09100
C680        C  0.78870228  0.60584704  0.37418196     0.07100
C681        C  0.81321352  0.58005568  0.37798816    -0.02900
C682        C  0.82797086  0.57854452  0.42040619    -0.07300
C683        C  0.81853358  0.60187476  0.45951961     0.06200
C684        C  0.79411855  0.62747225  0.45591879    -0.02400
Br685      Br  0.77914927  0.65822081  0.50883311    -0.02100
H686        H  0.76062958  0.64911107  0.41141608     0.10100
H687        H  0.84619673  0.55757313  0.42350833     0.08100
Br688      Br  0.82574423  0.54225943  0.32860660    -0.02500
C689        C  0.65667716  0.51929796  0.80485865    -0.09100
C690        C  0.63964212  0.50799028  0.84289303     0.07100
C691        C  0.63712862  0.46385497  0.85568117    -0.02900
C692        C  0.65219067  0.43194755  0.83128203    -0.07300
C693        C  0.66984354  0.44324295  0.79385797     0.06200
C694        C  0.67183333  0.48752792  0.78043621    -0.02400
Br695      Br  0.69662940  0.50763645  0.73209462    -0.02100
H696        H  0.65894584  0.55324245  0.79515564     0.10100
H697        H  0.65013338  0.39814912  0.84170123     0.08100
Br698      Br  0.61289483  0.44547336  0.90534044    -0.02500
C699        C  0.65261978  0.63503240  0.99434993    -0.09100
C700        C  0.63520074  0.59859843  0.98740737     0.07100
C701        C  0.62992674  0.57032745  0.02502620    -0.02900
C702        C  0.64319872  0.57741220  0.06797714    -0.07300
C703        C  0.66192061  0.61246079  0.07448464     0.06200
C704        C  0.66607040  0.64215507  0.03736753    -0.02400
Br705      Br  0.69193476  0.69018394  0.04122257    -0.02100
H706        H  0.65684629  0.65689571  0.96541937     0.10100
H707        H  0.63940894  0.55458463  0.09619999     0.08100
Br708      Br  0.60491075  0.52143534  0.01936015    -0.02500
C709        C  0.92866287  0.66115792  0.63093205    -0.09100
C710        C  0.92175052  0.70569387  0.63201266     0.07100
C711        C  0.89759689  0.72017179  0.60786434    -0.02900
C712        C  0.88004252  0.69000597  0.58563673    -0.07300
C713        C  0.88603649  0.64517666  0.58665784     0.06200
C714        C  0.91101647  0.63088703  0.60863135    -0.02400
Br715      Br  0.92245521  0.57076555  0.60844608    -0.02100
H716        H  0.94737885  0.64971191  0.64856695     0.10100
H717        H  0.86116990  0.70158109  0.56852962     0.08100
Br718      Br  0.88781836  0.78088137  0.60264129    -0.02500
C719        C  0.56738267  0.68731617  0.78068402    -0.09100
C720        C  0.54282228  0.70144701  0.80296924     0.07100
C721        C  0.53600959  0.68442367  0.84730320    -0.02900
C722        C  0.55387439  0.65405370  0.86855936    -0.07300
C723        C  0.57876343  0.64046688  0.84662418     0.06200
C724        C  0.58554331  0.65770424  0.80227760    -0.02400
Br725      Br  0.62039137  0.64545731  0.77114756    -0.02100
H726        H  0.57305682  0.70073594  0.74693450     0.10100
H727        H  0.54826039  0.64085808  0.90243264     0.08100
Br728      Br  0.50205091  0.69991445  0.87942404    -0.02500
C729        C  0.89520950  0.92984829  0.61905080    -0.09100
C730        C  0.91396366  0.94088561  0.65514089     0.07100
C731        C  0.91681522  0.98490243  0.66863013    -0.02900
C732        C  0.90262673  0.01741930  0.64391954    -0.07300
C733        C  0.88545320  0.00672537  0.60566127     0.06200
C734        C  0.88101936  0.96247878  0.59418280    -0.02400
Br735      Br  0.85588380  0.94524753  0.54493607    -0.02100
H736        H  0.89253318  0.89603985  0.60888553     0.10100
H737        H  0.90578184  0.05126787  0.65356075     0.08100
Br738      Br  0.93936990  0.00215614  0.72110850    -0.02500
C739        C  0.55855758  0.93526131  0.83928598    -0.09100
C740        C  0.54070000  0.94485512  0.80141609     0.07100
C741        C  0.53926480  0.98846037  0.78504221    -0.03300
C742        C  0.55509551  0.02098638  0.80679968    -0.07300
C743        C  0.57225702  0.01147523  0.84513011     0.06200
C744        C  0.57426159  0.96816707  0.86114969    -0.02400
Br745      Br  0.59844065  0.95245102  0.91219787    -0.02100
H746        H  0.56031641  0.90210283  0.85200487     0.10100
H747        H  0.55308310  0.05442329  0.79494288     0.08100
Br748      Br  0.51473772  0.00767877  0.73580530    -0.02500
C749        C  0.91884948  0.90729991  0.11198249    -0.09100
C750        C  0.89050649  0.91256177  0.10031998     0.07100
C751        C  0.87691359  0.95205637  0.11089489    -0.02900
C752        C  0.89190123  0.98583409  0.13274791    -0.07300
C753        C  0.92060156  0.98105538  0.14378680     0.06200
C754        C  0.93399050  0.94079365  0.13346935    -0.02400
Br755      Br  0.97261324  0.92777535  0.14799785    -0.02100
H756        H  0.92936447  0.87688979  0.10377560     0.10100
H757        H  0.88123413  0.01630308  0.13991382     0.08100
Br758      Br  0.83858339  0.96221176  0.09326839    -0.02500
C759        C  0.87506299  0.82768782  0.91837465    -0.09100
C760        C  0.88951506  0.81922683  0.96006495     0.07100
C761        C  0.91769655  0.80564818  0.95833741    -0.02900
C762        C  0.93144715  0.80294548  0.91543975    -0.07300
C763        C  0.91765925  0.81382984  0.87347205     0.06200
C764        C  0.88879771  0.82517795  0.87515721    -0.02400
Br765      Br  0.86726342  0.84146394  0.82103621    -0.02100
H766        H  0.85341276  0.83849662  0.91965762     0.10100
H767        H  0.95332931  0.79325956  0.91516474     0.08100
Br768      Br  0.93856723  0.79184675  0.01394933    -0.02500
C769        C  0.80192836  0.79849355  0.11462687    -0.09100
C770        C  0.82700723  0.78263317  0.09523608     0.07100
C771        C  0.83394842  0.73823406  0.10126704    -0.02900
C772        C  0.81571108  0.71058700  0.12542468    -0.07300
C773        C  0.79037563  0.72610289  0.14436196     0.06200
C774        C  0.78364055  0.77082534  0.13897773    -0.02400
Br775      Br  0.75086777  0.79707207  0.16620456    -0.02100
H776        H  0.79661400  0.83268007  0.11098498     0.10100
H777        H  0.82144712  0.67658868  0.12933354     0.08100
Br778      Br  0.86888285  0.71386621  0.08015073    -0.02500
C779        C  0.57382366  0.96607204  0.35712410    -0.09100
C780        C  0.56971617  0.92258989  0.34327613     0.07100
C781        C  0.55224567  0.91334194  0.30469157    -0.02900
C782        C  0.53884080  0.94741598  0.28118110    -0.07300
C783        C  0.54216294  0.99093974  0.29585837     0.06200
C784        C  0.56036471  0.00023858  0.33372522    -0.02400
Br785      Br  0.56860278  0.05866163  0.35422476    -0.02100
H786        H  0.58746478  0.97340915  0.38650585     0.10100
H787        H  0.52478876  0.93959911  0.25248733     0.08100
Br788      Br  0.54401187  0.85468168  0.28515150    -0.02500
C789        C  0.57589199  0.87341097  0.52478515    -0.09100
C790        C  0.57451321  0.83947146  0.49181532     0.07100
C791        C  0.56038436  0.80053799  0.50345274    -0.02900
C792        C  0.54697135  0.79690465  0.54664782    -0.07300
C793        C  0.54694699  0.83174553  0.57866930     0.06200
C794        C  0.56243225  0.86985924  0.56801670    -0.02400
Br795      Br  0.56657995  0.91788441  0.61092699    -0.02100
H796        H  0.58703206  0.90321937  0.51640330     0.10100
H797        H  0.53519824  0.76747853  0.55409652     0.08100
Br798      Br  0.55602908  0.75299862  0.46011384    -0.02500
C799        C  0.62355738  0.74811951  0.35387064    -0.09100
C800        C  0.63198820  0.79199615  0.35470742     0.07100
C801        C  0.65711846  0.80419998  0.33227709    -0.02900
C802        C  0.67292429  0.77274796  0.30844225    -0.07300
C803        C  0.66433920  0.72893012  0.30739152     0.06200
C804        C  0.63949056  0.71663727  0.33058215    -0.02400
Br805      Br  0.62533810  0.65794168  0.32883036    -0.02100
H806        H  0.60407955  0.73845612  0.37056623     0.10100
H807        H  0.69229184  0.78237295  0.29140702     0.08100
Br808      Br  0.67144130  0.86274218  0.33541118    -0.02500
loop_ 
_geom_bond_atom_site_label_1 
_geom_bond_atom_site_label_2 
_geom_bond_distance 
_geom_bond_site_symmetry_2 
_ccdc_geom_bond_type 
C1            C2   1.404       .  A
C1            C6   1.403       .  A
C1          C396   1.477       .  S
C2            C3   1.403       .  A
C2            H7   1.084       .  S
C3            C4   1.402       .  A
C3          C386   1.478       .  S
C4            C5   1.400       .  A
C4            H8   1.083       .  S
C5            C6   1.400       .  A
C5          C376   1.474       .  S
C6            H9   1.087       .  S
C10          C11   1.409       .  A
C10          C15   1.408       .  A
C10         C366   1.484       .  S
C11          C12   1.402       .  A
C11          H16   1.083       .  S
C12          C13   1.397       .  A
C12         C356   1.473   1_554  S
C13          C14   1.397       .  A
C13          H17   1.085       .  S
C14          C15   1.402       .  A
C14         C346   1.472       .  S
C15          H18   1.084       .  S
O19          C35   1.275       .  A
O19         Zn25   2.011       .  S
C20         C316   1.475       .  S
C20          O36   1.274       .  A
C20          O33   1.275       .  A
O21          C34   1.269       .  A
O21        Cd432   2.037   1_455  S
O22          C40   1.276       .  A
O22        Cd435   2.077   1_455  S
O23          C37   1.273       .  A
O23         Cd27   2.052       .  S
O24          C35   1.273       .  A
O24         Cd27   2.070       .  S
Zn25        O440   2.018       .  S
Zn25        O442   2.037       .  S
Zn25         O30   1.943       .  S
O26          C37   1.276       .  A
O26         Cd31   2.083       .  S
Cd27         O29   2.076       .  S
Cd27         O30   1.998       .  S
Cd28         O32   2.061       .  S
Cd28        O425   2.037       .  S
Cd28        O445   2.055       .  S
Cd28         O30   1.986       .  S
O29          C39   1.274       .  A
O30         Cd31   2.003       .  S
Cd31        O426   2.077       .  S
Cd31        O437   2.072       .  S
O32          C39   1.273       .  A
O33        Cd435   2.072   1_455  S
C34         C336   1.481       .  S
C34          O38   1.277       .  A
C35         C359   1.485       .  S
O36        Zn429   2.018   1_455  S
C37         C306   1.476       .  S
O38        Zn429   2.037   1_455  S
C39         C326   1.471       .  S
C40         C389   1.480       .  S
C40          O41   1.272       .  A
O41        Cd432   2.055   1_455  S
C42          C43   1.406       .  A
C42          C47   1.404       .  A
C42         C319   1.483       .  S
C43          C44   1.402       .  A
C43          H48   1.083       .  S
C44          C45   1.403       .  A
C44         C296   1.477       .  S
C45          C46   1.402       .  A
C45          H49   1.085       .  S
C46          C47   1.400       .  A
C46         C286   1.477       .  S
C47          H50   1.085       .  S
C51          C52   1.411       .  A
C51          C56   1.406       .  A
C51         C309   1.484       .  S
C52          C53   1.403       .  A
C52          H57   1.082       .  S
C53          C54   1.397       .  A
C53         C279   1.473       .  S
C54          C55   1.397       .  A
C54          H58   1.085       .  S
C55          C56   1.399       .  A
C55         C269   1.469       .  S
C56          H59   1.085       .  S
O60          C76   1.274       .  A
O60         Zn66   2.014       .  S
C61         C399   1.471       .  S
C61          O77   1.273       .  A
C61          O74   1.276       .  A
O62          C75   1.272       .  A
O62         Cd69   2.053       .  S
O63          C81   1.276       .  A
O63         Cd72   2.090       .  S
O64          C78   1.277       .  A
O64         Cd68   2.075       .  S
O65          C76   1.276       .  A
O65         Cd68   2.079       .  S
Zn66         O77   2.006       .  S
Zn66         O79   2.024       .  S
Zn66         O71   1.944       .  S
O67          C78   1.275       .  A
O67         Cd72   2.075       .  S
Cd68         O70   2.080       .  S
Cd68         O71   2.004       .  S
Cd69         O73   2.060       .  S
Cd69         O82   2.049       .  S
Cd69         O71   1.989       .  S
O70          C80   1.275       .  A
O71         Cd72   2.009       .  S
Cd72         O74   2.078       .  S
O73          C80   1.273       .  A
C75         C246   1.486       .  S
C75          O79   1.273       .  A
C76         C276   1.481       .  S
C78         C369   1.487       .  S
C80         C256   1.476       .  S
C81         C299   1.481       .  S
C81          O82   1.273       .  A
C83          C84   1.403       .  A
C83          C88   1.406       .  A
C83         C239   1.477       .  S
C84          C85   1.399       .  A
C84          H89   1.083       .  S
C85          C86   1.400       .  A
C85         C249   1.479       .  S
C86          C87   1.401       .  A
C86          H90   1.083       .  S
C87          C88   1.401       .  A
C87         C226   1.473       .  S
C88          H91   1.088       .  S
C92          C93   1.404       .  A
C92          C97   1.404       .  A
C92         C216   1.475       .  S
C93          C94   1.400       .  A
C93          H98   1.085       .  S
C94          C95   1.401       .  A
C94         C209   1.471   1_554  S
C95          C96   1.400       .  A
C95          H99   1.084       .  S
C96          C97   1.402       .  A
C96         C259   1.473       .  S
C97         H100   1.084       .  S
O101        C117   1.274       .  A
O101       Zn107   2.013       .  S
C102        C199   1.477       .  S
C102        O118   1.272       .  A
C102        O115   1.276       .  A
O103        C116   1.274       .  A
O103       Cd110   2.067       .  S
O104        C122   1.276       .  A
O104       Cd113   2.069       .  S
O105        C119   1.275       .  A
O105       Cd109   2.061       .  S
O106        C117   1.272       .  A
O106       Cd109   2.063       .  S
Zn107       O118   2.007       .  S
Zn107       O120   2.008       .  S
Zn107       O112   1.932       .  S
O108        C119   1.275       .  A
O108       Cd113   2.075       .  S
Cd109       O111   2.070       .  S
Cd109       O112   1.992       .  S
Cd110       O114   2.066       .  S
Cd110       O123   2.061       .  S
Cd110       O112   2.001       .  S
O111        C121   1.275       .  A
O112       Cd113   2.004       .  S
Cd113       O115   2.085       .  S
O114        C121   1.273       .  A
C116        C206   1.474       .  S
C116        O120   1.274       .  A
C117        C289   1.479       .  S
C119        C229   1.475       .  S
C121        C266   1.475       .  S
C122        C186   1.487       .  S
C122        O123   1.272       .  A
C124        C125   1.405       .  A
C124        C129   1.411       .  A
C124        C196   1.486       .  S
C125        C126   1.401       .  A
C125        H130   1.083       .  S
C126        C127   1.396       .  A
C126        C339   1.472       .  S
C127        C128   1.398       .  A
C127        H131   1.086       .  S
C128        C129   1.405       .  A
C128        C179   1.477       .  S
C129        H132   1.082       .  S
C133        C134   1.401       .  A
C133        C138   1.402       .  A
C133        C189   1.469       .  S
C134        C135   1.401       .  A
C134        H139   1.083       .  S
C135        C136   1.402       .  A
C135        C329   1.476       .  S
C136        C137   1.402       .  A
C136        H140   1.085       .  S
C137        C138   1.401       .  A
C137        C169   1.472       .  S
C138        H141   1.084       .  S
O142        C158   1.271       .  A
O142       Zn552   1.989   1_455  S
C143        C166   1.490       .  S
C143        O159   1.273       .  A
C143        O156   1.274       .  A
O144        C157   1.272       .  A
O144       Cd555   2.059   1_455  S
O145        C163   1.276       .  A
O145       Cd154   2.081       .  S
O146        C160   1.278       .  A
O146       Cd150   2.079       .  S
O147        C158   1.276       .  A
O147       Cd554   2.074   1_455  S
Zn148       O159   2.004       .  S
Zn148       O546   1.989       .  S
Zn148       O565   2.009       .  S
Zn148       O153   1.935       .  S
O149        C160   1.275       .  A
O149       Cd154   2.070       .  S
Cd150       O551   2.074       .  S
Cd150       O556   2.092       .  S
Cd150       O153   2.007       .  S
Cd151       O164   2.042       .  S
Cd151       O548   2.059       .  S
Cd151       O559   2.049       .  S
Cd151       O153   1.982       .  S
O152        C162   1.276       .  A
O152       Cd554   2.092   1_455  S
O153       Cd154   2.005       .  S
Cd154       O156   2.084       .  S
O155        C162   1.271       .  A
O155       Cd555   2.049   1_455  S
C157        C379   1.477   1_545  S
C157        O161   1.271       .  A
C158        C236   1.470       .  S
C160        C219   1.488       .  S
O161       Zn552   2.009   1_455  S
C162        C176   1.483       .  S
C163        C349   1.484   1_545  S
C163        O164   1.270       .  A
C165        C166   1.410       .  A
C165        C170   1.395       .  A
C165        H172   1.080       .  S
C166        C167   1.419       .  A
C167        C168   1.404       .  A
C167       Br174   1.921       .  S
C168        C169   1.400       .  A
C168        H173   1.081       .  S
C169        C170   1.403       .  A
C170       Br171   1.921       .  S
C175        C176   1.407       .  A
C175        C180   1.403   1_554  A
C175        H182   1.082       .  S
C176        C177   1.416       .  A
C177        C178   1.396       .  A
C177       Br184   1.923       .  S
C178        C179   1.400   1_554  A
C178        H183   1.082       .  S
C179        C180   1.409       .  A
C180       Br181   1.919       .  S
C185        C186   1.410       .  A
C185        C190   1.396       .  A
C185        H192   1.082       .  S
C186        C187   1.420       .  A
C187        C188   1.400       .  A
C187       Br194   1.924       .  S
C188        C189   1.399       .  A
C188        H193   1.082       .  S
C189        C190   1.401       .  A
C190       Br191   1.918       .  S
C195        C196   1.404       .  A
C195        C200   1.398       .  A
C195        H202   1.085       .  S
C196        C197   1.415       .  A
C197        C198   1.401       .  A
C197       Br204   1.921       .  S
C198        C199   1.402       .  A
C198        H203   1.085       .  S
C199        C200   1.411       .  A
C200       Br201   1.921       .  S
C205        C206   1.405       .  A
C205        C210   1.399       .  A
C205        H212   1.084       .  S
C206        C207   1.411       .  A
C207        C208   1.397       .  A
C207       Br214   1.921       .  S
C208        C209   1.400       .  A
C208        H213   1.084       .  S
C209        C210   1.405       .  A
C210       Br211   1.918       .  S
C215        C216   1.400       .  A
C215        C220   1.400       .  A
C215        H222   1.081       .  S
C216        C217   1.405       .  A
C217        C218   1.399       .  A
C217       Br224   1.919       .  S
C218        C219   1.409       .  A
C218        H223   1.080       .  S
C219        C220   1.418       .  A
C220       Br221   1.923       .  S
C225        C226   1.400       .  A
C225        C230   1.395       .  A
C225        H232   1.085       .  S
C226        C227   1.407       .  A
C227        C228   1.401       .  A
C227       Br234   1.918       .  S
C228        C229   1.406       .  A
C228        H233   1.084       .  S
C229        C230   1.411       .  A
C230       Br231   1.921       .  S
C235        C236   1.404       .  A
C235        C240   1.397       .  A
C235        H242   1.085       .  S
C236        C237   1.408       .  A
C237        C238   1.395       .  A
C237       Br244   1.921       .  S
C238        C239   1.405       .  A
C238        H243   1.085       .  S
C239        C240   1.409       .  A
C240       Br241   1.920       .  S
C245        C246   1.408       .  A
C245        C250   1.395       .  A
C245        H252   1.081       .  S
C246        C247   1.416       .  A
C247        C248   1.399       .  A
C247       Br254   1.920       .  S
C248        C249   1.403       .  A
C248        H253   1.081       .  S
C249        C250   1.409       .  A
C250       Br251   1.923       .  S
C255        C256   1.405       .  A
C255        C260   1.400       .  A
C255        H262   1.083       .  S
C256        C257   1.412       .  A
C257        C258   1.398       .  A
C257       Br264   1.921       .  S
C258        C259   1.400       .  A
C258        H263   1.083       .  S
C259        C260   1.407       .  A
C260       Br261   1.918       .  S
C265        C266   1.405       .  A
C265        C270   1.397       .  A
C265        H272   1.082       .  S
C266        C267   1.413       .  A
C267        C268   1.399       .  A
C267       Br274   1.920       .  S
C268        C269   1.400       .  A
C268        H273   1.083       .  S
C269        C270   1.405       .  A
C270       Br271   1.919       .  S
C275        C276   1.406       .  A
C275        C280   1.398       .  A
C275        H282   1.083       .  S
C276        C277   1.413       .  A
C277        C278   1.401       .  A
C277       Br284   1.920       .  S
C278        C279   1.401       .  A
C278        H283   1.083       .  S
C279        C280   1.406       .  A
C280       Br281   1.919       .  S
C285        C286   1.403       .  A
C285        C290   1.398       .  A
C285        H292   1.082       .  S
C286        C287   1.406       .  A
C287        C288   1.399       .  A
C287       Br294   1.918       .  S
C288        C289   1.406       .  A
C288        H293   1.082       .  S
C289        C290   1.414       .  A
C290       Br291   1.923       .  S
C295        C296   1.403       .  A
C295        C300   1.402   1_556  A
C295        H302   1.085       .  S
C296        C297   1.406   1_556  A
C297        C298   1.396       .  A
C297       Br304   1.919       .  S
C298        C299   1.406       .  A
C298        H303   1.085       .  S
C299        C300   1.414       .  A
C300       Br301   1.920       .  S
C305        C306   1.404       .  A
C305        C310   1.402       .  A
C305        H312   1.081       .  S
C306        C307   1.412       .  A
C307        C308   1.396       .  A
C307       Br314   1.923       .  S
C308        C309   1.403       .  A
C308        H313   1.082       .  S
C309        C310   1.414       .  A
C310       Br311   1.920       .  S
C315        C316   1.401       .  A
C315        C320   1.397       .  A
C315        H322   1.085       .  S
C316        C317   1.411       .  A
C317        C318   1.399       .  A
C317       Br324   1.921       .  S
C318        C319   1.405       .  A
C318        H323   1.085       .  S
C319        C320   1.413       .  A
C320       Br321   1.922       .  S
C325        C326   1.403       .  A
C325        C330   1.401       .  A
C325        H332   1.082       .  S
C326        C327   1.408       .  A
C327        C328   1.396   1_565  A
C327       Br334   1.916   1_565  S
C328        C329   1.402       .  A
C328        H333   1.082       .  S
C329        C330   1.409   1_545  A
C330       Br331   1.918       .  S
C335        C336   1.407       .  A
C335        C340   1.399       .  A
C335        H342   1.083       .  S
C336        C337   1.418       .  A
C337        C338   1.393   1_565  A
C337       Br344   1.920   1_565  S
C338        C339   1.397       .  A
C338        H343   1.084       .  S
C339        C340   1.408   1_545  A
C340       Br341   1.919       .  S
C345        C346   1.398       .  A
C345        C350   1.394       .  A
C345        H352   1.083       .  S
C346        C347   1.405       .  A
C347        C348   1.401       .  A
C347       Br354   1.917       .  S
C348        C349   1.409       .  A
C348        H353   1.082   1_565  S
C349        C350   1.419       .  A
C350       Br351   1.926       .  S
C355        C356   1.400       .  A
C355        C360   1.402       .  A
C355        H362   1.083       .  S
C356        C357   1.406       .  A
C357        C358   1.394       .  A
C357       Br364   1.921   1_556  S
C358        C359   1.407       .  A
C358        H363   1.083       .  S
C359        C360   1.418       .  A
C360       Br361   1.921       .  S
C365        C366   1.404       .  A
C365        C370   1.402       .  A
C365        H372   1.082       .  S
C366        C367   1.410       .  A
C367        C368   1.398       .  A
C367       Br374   1.921       .  S
C368        C369   1.406       .  A
C368        H373   1.083       .  S
C369        C370   1.416       .  A
C370       Br371   1.921       .  S
C375        C376   1.402       .  A
C375        C380   1.398   1_565  A
C375        H382   1.083       .  S
C376        C377   1.408       .  A
C377        C378   1.396       .  A
C377       Br384   1.920       .  S
C378        C379   1.405       .  A
C378        H383   1.083       .  S
C379        C380   1.413   1_565  A
C380       Br381   1.921       .  S
C385        C386   1.403       .  A
C385        C390   1.399       .  A
C385        H392   1.083       .  S
C386        C387   1.410       .  A
C387        C388   1.397       .  A
C387       Br394   1.920       .  S
C388        C389   1.404       .  A
C388        H393   1.083       .  S
C389        C390   1.415       .  A
C390       Br391   1.923       .  S
C395        C396   1.402       .  A
C395        C400   1.396       .  A
C395        H402   1.085       .  S
C396        C397   1.410       .  A
C397        C398   1.400       .  A
C397       Br404   1.920       .  S
C398        C399   1.403       .  A
C398        H403   1.085       .  S
C399        C400   1.409       .  A
C400       Br401   1.920       .  S
C405        C406   1.404       .  A
C405        C410   1.403       .  A
C405        C800   1.477       .  S
C406        C407   1.403       .  A
C406        H411   1.084       .  S
C407        C408   1.402       .  A
C407        C790   1.478       .  S
C408        C409   1.400       .  A
C408        H412   1.083       .  S
C409        C410   1.400       .  A
C409        C780   1.474       .  S
C410        H413   1.087       .  S
C414        C415   1.409       .  A
C414        C419   1.408       .  A
C414        C770   1.484       .  S
C415        C416   1.402       .  A
C415        H420   1.083       .  S
C416        C417   1.397       .  A
C416        C760   1.473   1_554  S
C417        C418   1.397       .  A
C417        H421   1.085       .  S
C418        C419   1.402       .  A
C418        C750   1.472       .  S
C419        H422   1.084       .  S
O423        C439   1.275       .  A
O423       Zn429   2.011       .  S
C424        C720   1.475       .  S
C424        O440   1.274       .  A
C424        O437   1.275       .  A
O425        C438   1.269       .  A
O426        C444   1.276       .  A
O427        C441   1.273       .  A
O427       Cd431   2.051       .  S
O428        C439   1.273       .  A
O428       Cd431   2.070       .  S
Zn429       O434   1.943       .  S
O430        C441   1.276       .  A
O430       Cd435   2.083       .  S
Cd431       O433   2.076       .  S
Cd431       O434   1.998       .  S
Cd432       O436   2.061       .  S
Cd432       O434   1.986       .  S
O433        C443   1.274       .  A
O434       Cd435   2.003       .  S
O436        C443   1.273       .  A
C438        C740   1.481       .  S
C438        O442   1.277       .  A
C439        C763   1.485       .  S
C441        C710   1.476       .  S
C443        C730   1.471       .  S
C444        C793   1.480       .  S
C444        O445   1.272       .  A
C446        C447   1.406       .  A
C446        C451   1.404       .  A
C446        C723   1.483       .  S
C447        C448   1.402       .  A
C447        H452   1.083       .  S
C448        C449   1.403       .  A
C448        C700   1.477       .  S
C449        C450   1.402       .  A
C449        H453   1.085       .  S
C450        C451   1.400       .  A
C450        C690   1.477       .  S
C451        H454   1.085       .  S
C455        C456   1.411       .  A
C455        C460   1.406       .  A
C455        C713   1.484       .  S
C456        C457   1.403       .  A
C456        H461   1.082       .  S
C457        C458   1.397       .  A
C457        C683   1.473       .  S
C458        C459   1.397       .  A
C458        H462   1.085       .  S
C459        C460   1.399       .  A
C459        C673   1.469       .  S
C460        H463   1.085       .  S
O464        C480   1.274       .  A
O464       Zn470   2.014       .  S
C465        C803   1.471       .  S
C465        O481   1.273       .  A
C465        O478   1.276       .  A
O466        C479   1.272       .  A
O466       Cd473   2.054       .  S
O467        C485   1.276       .  A
O467       Cd476   2.090       .  S
O468        C482   1.277       .  A
O468       Cd472   2.075       .  S
O469        C480   1.276       .  A
O469       Cd472   2.079       .  S
Zn470       O481   2.006       .  S
Zn470       O483   2.024       .  S
Zn470       O475   1.943       .  S
O471        C482   1.275       .  A
O471       Cd476   2.075       .  S
Cd472       O474   2.080       .  S
Cd472       O475   2.004       .  S
Cd473       O477   2.060       .  S
Cd473       O486   2.049       .  S
Cd473       O475   1.989       .  S
O474        C484   1.275       .  A
O475       Cd476   2.009       .  S
Cd476       O478   2.078       .  S
O477        C484   1.273       .  A
C479        C650   1.486       .  S
C479        O483   1.273       .  A
C480        C680   1.481       .  S
C482        C773   1.487       .  S
C484        C660   1.476       .  S
C485        C703   1.481       .  S
C485        O486   1.273       .  A
C487        C488   1.403       .  A
C487        C492   1.406       .  A
C487        C643   1.477       .  S
C488        C489   1.399       .  A
C488        H493   1.083       .  S
C489        C490   1.400       .  A
C489        C653   1.479       .  S
C490        C491   1.401       .  A
C490        H494   1.083       .  S
C491        C492   1.401       .  A
C491        C630   1.473       .  S
C492        H495   1.088       .  S
C496        C497   1.404       .  A
C496        C501   1.404       .  A
C496        C620   1.475       .  S
C497        C498   1.400       .  A
C497        H502   1.085       .  S
C498        C499   1.401       .  A
C498        C613   1.471   1_554  S
C499        C500   1.400       .  A
C499        H503   1.084       .  S
C500        C501   1.402       .  A
C500        C663   1.473       .  S
C501        H504   1.084       .  S
O505        C521   1.274       .  A
O505       Zn511   2.012       .  S
C506        C603   1.477       .  S
C506        O522   1.272       .  A
C506        O519   1.276       .  A
O507        C520   1.274       .  A
O507       Cd514   2.067       .  S
O508        C526   1.276       .  A
O508       Cd517   2.069       .  S
O509        C523   1.275       .  A
O509       Cd513   2.061       .  S
O510        C521   1.272       .  A
O510       Cd513   2.063       .  S
Zn511       O522   2.007       .  S
Zn511       O524   2.008       .  S
Zn511       O516   1.932       .  S
O512        C523   1.275       .  A
O512       Cd517   2.075       .  S
Cd513       O515   2.070       .  S
Cd513       O516   1.992       .  S
Cd514       O518   2.066       .  S
Cd514       O527   2.061       .  S
Cd514       O516   2.001       .  S
O515        C525   1.275       .  A
O516       Cd517   2.004       .  S
Cd517       O519   2.085       .  S
O518        C525   1.273       .  A
C520        C610   1.474       .  S
C520        O524   1.274       .  A
C521        C693   1.479       .  S
C523        C633   1.475       .  S
C525        C670   1.475       .  S
C526        C590   1.487       .  S
C526        O527   1.272       .  A
C528        C529   1.405       .  A
C528        C533   1.411       .  A
C528        C600   1.486       .  S
C529        C530   1.401       .  A
C529        H534   1.083       .  S
C530        C531   1.396       .  A
C530        C743   1.472       .  S
C531        C532   1.398       .  A
C531        H535   1.086       .  S
C532        C533   1.405       .  A
C532        C583   1.477       .  S
C533        H536   1.082       .  S
C537        C538   1.401       .  A
C537        C542   1.402       .  A
C537        C593   1.469       .  S
C538        C539   1.401       .  A
C538        H543   1.083       .  S
C539        C540   1.402       .  A
C539        C733   1.476       .  S
C540        C541   1.402       .  A
C540        H544   1.085       .  S
C541        C542   1.401       .  A
C541        C573   1.472       .  S
C542        H545   1.084       .  S
O546        C562   1.271       .  A
C547        C570   1.490       .  S
C547        O563   1.273       .  A
C547        O560   1.274       .  A
O548        C561   1.272       .  A
O549        C567   1.276       .  A
O549       Cd558   2.081       .  S
O550        C564   1.278       .  A
O550       Cd554   2.079       .  S
O551        C562   1.276       .  A
Zn552       O563   2.003       .  S
Zn552       O557   1.935       .  S
O553        C564   1.275       .  A
O553       Cd558   2.071       .  S
Cd554       O557   2.007       .  S
Cd555       O568   2.042       .  S
Cd555       O557   1.982       .  S
O556        C566   1.276       .  A
O557       Cd558   2.005       .  S
Cd558       O560   2.084       .  S
O559        C566   1.271       .  A
C561        C783   1.477   1_545  S
C561        O565   1.271       .  A
C562        C640   1.470       .  S
C564        C623   1.488       .  S
C566        C580   1.483       .  S
C567        C753   1.484   1_545  S
C567        O568   1.270       .  A
C569        C570   1.410       .  A
C569        C574   1.395       .  A
C569        H576   1.080       .  S
C570        C571   1.419       .  A
C571        C572   1.404       .  A
C571       Br578   1.921       .  S
C572        C573   1.400       .  A
C572        H577   1.081       .  S
C573        C574   1.403       .  A
C574       Br575   1.921       .  S
C579        C580   1.407       .  A
C579        C584   1.403   1_554  A
C579        H586   1.082       .  S
C580        C581   1.416       .  A
C581        C582   1.396       .  A
C581       Br588   1.923       .  S
C582        C583   1.400   1_554  A
C582        H587   1.082       .  S
C583        C584   1.409       .  A
C584       Br585   1.919       .  S
C589        C590   1.410       .  A
C589        C594   1.396       .  A
C589        H596   1.082       .  S
C590        C591   1.420       .  A
C591        C592   1.400       .  A
C591       Br598   1.924       .  S
C592        C593   1.399       .  A
C592        H597   1.082       .  S
C593        C594   1.401       .  A
C594       Br595   1.918       .  S
C599        C600   1.404       .  A
C599        C604   1.398       .  A
C599        H606   1.085       .  S
C600        C601   1.414       .  A
C601        C602   1.401       .  A
C601       Br608   1.921       .  S
C602        C603   1.402       .  A
C602        H607   1.085       .  S
C603        C604   1.411       .  A
C604       Br605   1.921       .  S
C609        C610   1.405       .  A
C609        C614   1.399       .  A
C609        H616   1.084       .  S
C610        C611   1.411       .  A
C611        C612   1.397       .  A
C611       Br618   1.921       .  S
C612        C613   1.400       .  A
C612        H617   1.084       .  S
C613        C614   1.405       .  A
C614       Br615   1.918       .  S
C619        C620   1.400       .  A
C619        C624   1.400       .  A
C619        H626   1.081       .  S
C620        C621   1.405       .  A
C621        C622   1.399       .  A
C621       Br628   1.919       .  S
C622        C623   1.409       .  A
C622        H627   1.080       .  S
C623        C624   1.418       .  A
C624       Br625   1.923       .  S
C629        C630   1.400       .  A
C629        C634   1.395       .  A
C629        H636   1.085       .  S
C630        C631   1.407       .  A
C631        C632   1.401       .  A
C631       Br638   1.918       .  S
C632        C633   1.406       .  A
C632        H637   1.084       .  S
C633        C634   1.411       .  A
C634       Br635   1.921       .  S
C639        C640   1.404       .  A
C639        C644   1.397       .  A
C639        H646   1.085       .  S
C640        C641   1.408       .  A
C641        C642   1.395       .  A
C641       Br648   1.921       .  S
C642        C643   1.405       .  A
C642        H647   1.085       .  S
C643        C644   1.409       .  A
C644       Br645   1.920       .  S
C649        C650   1.408       .  A
C649        C654   1.395       .  A
C649        H656   1.081       .  S
C650        C651   1.416       .  A
C651        C652   1.399       .  A
C651       Br658   1.920       .  S
C652        C653   1.403       .  A
C652        H657   1.081       .  S
C653        C654   1.409       .  A
C654       Br655   1.923       .  S
C659        C660   1.405       .  A
C659        C664   1.400       .  A
C659        H666   1.083       .  S
C660        C661   1.412       .  A
C661        C662   1.398       .  A
C661       Br668   1.921       .  S
C662        C663   1.400       .  A
C662        H667   1.083       .  S
C663        C664   1.407       .  A
C664       Br665   1.918       .  S
C669        C670   1.405       .  A
C669        C674   1.397       .  A
C669        H676   1.082       .  S
C670        C671   1.413       .  A
C671        C672   1.399       .  A
C671       Br678   1.920       .  S
C672        C673   1.400       .  A
C672        H677   1.083       .  S
C673        C674   1.405       .  A
C674       Br675   1.919       .  S
C679        C680   1.406       .  A
C679        C684   1.398       .  A
C679        H686   1.083       .  S
C680        C681   1.413       .  A
C681        C682   1.401       .  A
C681       Br688   1.920       .  S
C682        C683   1.401       .  A
C682        H687   1.083       .  S
C683        C684   1.406       .  A
C684       Br685   1.919       .  S
C689        C690   1.403       .  A
C689        C694   1.398       .  A
C689        H696   1.082       .  S
C690        C691   1.406       .  A
C691        C692   1.399       .  A
C691       Br698   1.918       .  S
C692        C693   1.406       .  A
C692        H697   1.082       .  S
C693        C694   1.414       .  A
C694       Br695   1.923       .  S
C699        C700   1.403       .  A
C699        C704   1.402   1_556  A
C699        H706   1.085       .  S
C700        C701   1.406   1_556  A
C701        C702   1.396       .  A
C701       Br708   1.919       .  S
C702        C703   1.406       .  A
C702        H707   1.085       .  S
C703        C704   1.414       .  A
C704       Br705   1.920       .  S
C709        C710   1.404       .  A
C709        C714   1.402       .  A
C709        H716   1.081       .  S
C710        C711   1.412       .  A
C711        C712   1.396       .  A
C711       Br718   1.923       .  S
C712        C713   1.403       .  A
C712        H717   1.082       .  S
C713        C714   1.414       .  A
C714       Br715   1.920       .  S
C719        C720   1.401       .  A
C719        C724   1.397       .  A
C719        H726   1.085       .  S
C720        C721   1.411       .  A
C721        C722   1.399       .  A
C721       Br728   1.921       .  S
C722        C723   1.405       .  A
C722        H727   1.085       .  S
C723        C724   1.413       .  A
C724       Br725   1.922       .  S
C729        C730   1.403       .  A
C729        C734   1.401       .  A
C729        H736   1.082       .  S
C730        C731   1.408       .  A
C731        C732   1.396   1_565  A
C731       Br738   1.916   1_565  S
C732        C733   1.402       .  A
C732        H737   1.082       .  S
C733        C734   1.409   1_545  A
C734       Br735   1.918       .  S
C739        C740   1.407       .  A
C739        C744   1.399       .  A
C739        H746   1.083       .  S
C740        C741   1.418       .  A
C741        C742   1.393   1_565  A
C741       Br748   1.920   1_565  S
C742        C743   1.397       .  A
C742        H747   1.084       .  S
C743        C744   1.408   1_545  A
C744       Br745   1.919       .  S
C749        C750   1.398       .  A
C749        C754   1.394       .  A
C749        H756   1.083       .  S
C750        C751   1.405       .  A
C751        C752   1.401       .  A
C751       Br758   1.917       .  S
C752        C753   1.409       .  A
C752        H757   1.082   1_565  S
C753        C754   1.419       .  A
C754       Br755   1.926       .  S
C759        C760   1.400       .  A
C759        C764   1.402       .  A
C759        H766   1.083       .  S
C760        C761   1.406       .  A
C761        C762   1.394       .  A
C761       Br768   1.921   1_556  S
C762        C763   1.407       .  A
C762        H767   1.083       .  S
C763        C764   1.418       .  A
C764       Br765   1.921       .  S
C769        C770   1.404       .  A
C769        C774   1.402       .  A
C769        H776   1.082       .  S
C770        C771   1.410       .  A
C771        C772   1.398       .  A
C771       Br778   1.921       .  S
C772        C773   1.406       .  A
C772        H777   1.083       .  S
C773        C774   1.416       .  A
C774       Br775   1.921       .  S
C779        C780   1.402       .  A
C779        C784   1.398   1_565  A
C779        H786   1.083       .  S
C780        C781   1.408       .  A
C781        C782   1.396       .  A
C781       Br788   1.920       .  S
C782        C783   1.405       .  A
C782        H787   1.083       .  S
C783        C784   1.413   1_565  A
C784       Br785   1.921       .  S
C789        C790   1.403       .  A
C789        C794   1.399       .  A
C789        H796   1.083       .  S
C790        C791   1.410       .  A
C791        C792   1.397       .  A
C791       Br798   1.920       .  S
C792        C793   1.404       .  A
C792        H797   1.083       .  S
C793        C794   1.414       .  A
C794       Br795   1.923       .  S
C799        C800   1.402       .  A
C799        C804   1.396       .  A
C799        H806   1.085       .  S
C800        C801   1.410       .  A
C801        C802   1.400       .  A
C801       Br808   1.920       .  S
C802        C803   1.403       .  A
C802        H807   1.085       .  S
C803        C804   1.409       .  A
C804       Br805   1.920       .  S
