geometry optimzed in LAMMPS
_audit_creation_date              2020-11-30 
_audit_creation_method            'lammps2cif' 
_symmetry_space_group_name_H-M    'P1' 
_symmetry_Int_Tables_number       1 
_symmetry_cell_setting            triclinic 
loop_ 
_symmetry_equiv_pos_as_xyz 
  x,y,z 
_cell_length_a                    41.20218558 
_cell_length_b                    41.27716508824508 
_cell_length_c                    31.47701171825761 
_cell_angle_alpha                 89.8359179709869 
_cell_angle_beta                  90.0741714793335 
_cell_angle_gamma                 120.18101971520025 
loop_ 
_atom_site_label 
_atom_site_type_symbol 
_atom_site_fract_x 
_atom_site_fract_y 
_atom_site_fract_z 
_atom_site_charge 
C1          C  0.33024602  0.19925927  0.98709242     0.03200
C2          C  0.29772489  0.16383057  0.98804809    -0.12900
C3          C  0.30052765  0.13134866  0.98869396     0.00700
C4          C  0.33436932  0.13375537  0.48772898    -0.11500
C5          C  0.36725360  0.16896510  0.48802179     0.03200
C6          C  0.36475192  0.20163318  0.48768869    -0.10900
H7          H  0.27035739  0.16156184  0.98955380     0.08800
H8          H  0.33620871  0.10846849  0.48908938     0.06300
H9          H  0.39011497  0.22885967  0.48902885     0.06200
C10         C  0.19864432  0.32971775  0.98110898     0.03200
C11         C  0.20266759  0.36554564  0.98063708    -0.12900
C12         C  0.17081669  0.36948915  0.98120715     0.00700
C13         C  0.13491428  0.33758089  0.98195683    -0.11500
C14         C  0.13082213  0.30180005  0.98240562     0.03200
C15         C  0.16271131  0.29788879  0.98196751    -0.10900
H16         H  0.23044945  0.39022666  0.98140854     0.08800
H17         H  0.11027490  0.34060470  0.98367298     0.06300
H18         H  0.15959199  0.27021263  0.98367953     0.06200
C19         C  0.34834986  0.35060268  0.05492605     0.86600
C20         C  0.30871590  0.34431066  0.04653909    -0.53700
C21         C  0.29442538  0.32876910  0.00792222     0.09500
C22         C  0.31920222  0.32009253  0.48109014     0.20400
C23         C  0.34416962  0.31174213  0.04864421    -0.54400
C24         C  0.32994113  0.29611638  0.01005350     0.09600
C25         C  0.37152873  0.37388099  0.01668547    -0.53900
C26         C  0.35557996  0.35819284  0.47759907     0.10200
H27         H  0.29310730  0.35191775  0.06793501     0.14700
H28         H  0.30697467  0.30708074  0.44991678     0.00400
H29         H  0.35276288  0.29826135  0.07222194     0.15000
H30         H  0.39721075  0.40078546  0.01979027     0.14800
C31         C  0.50189038  0.15037897  0.05427928     0.86600
C32         C  0.03511965  0.19039163  0.04712376    -0.53700
C33         C  0.03401974  0.20558193  0.00902905     0.09500
C34         C  0.49867743  0.17933881  0.48083292     0.20400
C35         C  0.46688896  0.15418776  0.04823151    -0.54400
C36         C  0.46568631  0.16937988  0.01015790     0.09600
C37         C  0.50256924  0.12849554  0.01525344    -0.53900
C38         C  0.50133333  0.14359335  0.47708834     0.10200
H39         H  0.05813144  0.20569614  0.06900985     0.14700
H40         H  0.49747593  0.19151792  0.44974765     0.00400
H41         H  0.44457000  0.14485408  0.07163630     0.15000
H42         H  0.50407204  0.10300371  0.01750288     0.14800
C43         C  0.14606067  0.49576734  0.05384204     0.86600
C44         C  0.15277669  0.46273191  0.04599307    -0.53700
C45         C  0.16971616  0.46483645  0.00804510     0.09500
C46         C  0.17858199  0.49980039  0.48098605     0.20400
C47         C  0.18588850  0.03215567  0.04895076    -0.54400
C48         C  0.20281437  0.03391649  0.01117427     0.09600
C49         C  0.12385001  0.49582544  0.01473258    -0.53900
C50         C  0.14047007  0.49781103  0.47710717     0.10200
H51         H  0.14439267  0.43912119  0.06716179     0.14700
H52         H  0.19191229  0.50085550  0.44995270     0.00400
H53         H  0.19853188  0.05417892  0.07264960     0.15000
H54         H  0.09671434  0.49414916  0.01680973     0.14800
Fe55       Fe  0.45265772  0.50094944  0.26346547     1.65800
Fe56       Fe  0.49760458  0.45110786  0.26407709     1.73200
Fe57       Fe  0.04725791  0.04629103  0.26401298     1.54400
O58         O  0.02862669  0.07362816  0.22350337    -0.81600
O59         O  0.03141012  0.46585059  0.31634507    -0.79900
O60         O  0.46773849  0.03462434  0.21197857    -0.84100
O61         O  0.47289863  0.04666558  0.30551480    -0.79000
O62         O  0.06492960  0.03079175  0.21108993    -0.80700
O63         O  0.45188632  0.42594313  0.30532071    -0.83500
C64         C  0.00330424  0.06553017  0.32622163     0.97300
C65         C  0.49847160  0.06397050  0.20300080     1.04700
O66         O  0.49936035  0.49940050  0.26350839    -1.12500
O67         O  0.46350187  0.43271314  0.21198629    -0.74900
O68         O  0.42509714  0.45517258  0.22276575    -0.78400
O69         O  0.03307179  0.06516896  0.31704100    -0.79100
C70         C  0.43431396  0.43417188  0.20289619     0.96200
O71         O  0.43334449  0.46746240  0.31623842    -0.77000
O72         O  0.04305333  0.46920527  0.22292234    -0.82200
C73         C  0.06164363  0.49562850  0.32527188     0.98800
C74         C  0.06364565  0.00022737  0.20230848     1.04700
O75         O  0.07285743  0.02560928  0.30444675    -0.77900
C76         C  0.43305370  0.43747570  0.32578513     1.03000
C77         C  0.12090284  0.02783678  0.10116625    -0.13300
C78         C  0.12637773  0.49614330  0.09456865     0.08900
C79         C  0.11156253  0.46667561  0.12450677    -0.13300
C80         C  0.09147005  0.46776509  0.15974040    -0.13300
C81         C  0.08638174  0.99970608  0.16624317     0.08900
C82         C  0.10088680  0.02890379  0.13628323    -0.13300
H83         H  0.13098977  0.05042756  0.07816381     0.12900
H84         H  0.11446313  0.44230684  0.12095605     0.12900
H85         H  0.08000411  0.44451295  0.18192409     0.12900
H86         H  0.09610027  0.05229692  0.13943903     0.12900
C87         C  0.14038260  0.01928715  0.40291604    -0.13300
C88         C  0.12175812  0.49575029  0.43646286     0.08900
C89         C  0.08372014  0.46892537  0.43137404    -0.13300
C90         C  0.06472216  0.46834557  0.39456729    -0.13300
C91         C  0.08323565  0.49500118  0.36235156     0.08900
C92         C  0.12118866  0.01940372  0.36621053    -0.13300
H93         H  0.17013036  0.03920757  0.40572157     0.12900
H94         H  0.06857527  0.44860261  0.45617699     0.12900
H95         H  0.03514909  0.44771102  0.39195743     0.12900
H96         H  0.13651805  0.03914760  0.34100063     0.12900
C97         C  0.03093673  0.11649952  0.43130074    -0.13300
C98         C  0.50359366  0.12688710  0.43651004     0.08900
C99         C  0.47725868  0.11901188  0.40412107    -0.13300
C100        C  0.47721927  0.09935467  0.36783913    -0.13300
C101        C  0.00410001  0.08814384  0.36307758     0.08900
C102        C  0.03141237  0.09763757  0.39483966    -0.13300
H103        H  0.05171689  0.12260025  0.45579863     0.12900
H104        H  0.45587273  0.12673164  0.40767612     0.12900
H105        H  0.45599290  0.09261820  0.34374073     0.12900
H106        H  0.05249235  0.08941565  0.39217348     0.12900
C107        C  0.46832308  0.07402778  0.13917206    -0.13300
C108        C  0.49911391  0.08739181  0.16690664     0.08900
C109        C  0.03075907  0.12259663  0.15887673    -0.13300
C110        C  0.03182402  0.14381865  0.12362018    -0.13300
C111        C  0.50119907  0.13022464  0.09528707     0.08900
C112        C  0.46950807  0.09497896  0.10375587    -0.13300
H113        H  0.44353428  0.04687047  0.14419019     0.12900
H114        H  0.05500064  0.13363089  0.17959444     0.12900
H115        H  0.05730714  0.17011506  0.11854662     0.12900
H116        H  0.44569992  0.08329141  0.08234886     0.12900
C117        C  0.38415970  0.41523632  0.43200745    -0.13300
C118        C  0.37260280  0.37718261  0.43705370     0.08900
C119        C  0.37907226  0.35818710  0.40425105    -0.13300
C120        C  0.39845748  0.37755532  0.36759477    -0.13300
C121        C  0.41071071  0.41591816  0.36294802     0.08900
C122        C  0.40271082  0.43432824  0.39518639    -0.13300
H123        H  0.37909328  0.43029787  0.45681678     0.12900
H124        H  0.37038354  0.32880857  0.40769419     0.12900
H125        H  0.40411086  0.36268174  0.34309843     0.12900
H126        H  0.41186239  0.46387534  0.39256557     0.12900
C127        C  0.37494444  0.40613802  0.15992556    -0.13300
C128        C  0.41061914  0.41076237  0.16742603     0.08900
C129        C  0.42416494  0.39354044  0.13989993    -0.13300
C130        C  0.40315097  0.37333257  0.10484810    -0.13300
C131        C  0.36775660  0.36929188  0.09641132     0.08900
C132        C  0.35363817  0.38553128  0.12495343    -0.13600
H133        H  0.36368368  0.41893440  0.18074955     0.12900
H134        H  0.45158451  0.39654750  0.14467236     0.12900
H135        H  0.41508061  0.36158820  0.08342433     0.12900
H136        H  0.32695712  0.38386020  0.12015669     0.12900
C137        C  0.06512027  0.24080452  0.99502096    -0.13200
C138        C  0.09418320  0.26915599  0.98727786    -0.14800
C139        C  0.17463762  0.40595983  0.98555416    -0.13200
C140        C  0.17461459  0.43450101  0.99349909    -0.14800
C141        C  0.25963291  0.32505779  0.99295776    -0.13200
C142        C  0.23137635  0.32586306  0.98517233    -0.14800
C143        C  0.26707491  0.09517464  0.99307532    -0.13200
C144        C  0.23824861  0.06616386  0.99961004    -0.14800
C145        C  0.32706415  0.26118314  0.99740881    -0.13200
C146        C  0.32748810  0.23262326  0.99066374    -0.14800
C147        C  0.43370421  0.17268238  0.99789608    -0.13200
C148        C  0.40480651  0.17258823  0.99117107    -0.14800
C149        C  0.32949971  0.19916292  0.48715251     0.03200
C150        C  0.29673192  0.16388504  0.48673773    -0.12900
C151        C  0.29910383  0.13114308  0.48711900     0.00700
C152        C  0.33595439  0.13435924  0.98832084    -0.11500
C153        C  0.36857629  0.16975190  0.98739005     0.03200
C154        C  0.36567225  0.20216956  0.98659519    -0.10900
H155        H  0.26947553  0.16191030  0.48741249     0.08800
H156        H  0.33815009  0.10928145  0.99001755     0.06300
H157        H  0.39087656  0.22955608  0.98706450     0.06200
C158        C  0.19739804  0.32935703  0.48144483     0.03200
C159        C  0.20160993  0.36526628  0.48130425    -0.12900
C160        C  0.16988425  0.36943460  0.48120002     0.00700
C161        C  0.13387724  0.33763388  0.48094718    -0.11500
C162        C  0.12956083  0.30174246  0.48112810     0.03200
C163        C  0.16135824  0.29764256  0.48128925    -0.10900
H164        H  0.22943441  0.38983622  0.48285073     0.08800
H165        H  0.10931236  0.34080608  0.48223959     0.06300
H166        H  0.15805804  0.26988722  0.48281130     0.06200
C167        C  0.34800878  0.35105309  0.55448728     0.86600
C168        C  0.30806401  0.34422445  0.54682897    -0.53700
C169        C  0.29331961  0.32841065  0.50843965     0.09500
C170        C  0.32040666  0.32023181  0.98108709     0.20400
C171        C  0.34417689  0.31233254  0.54817290    -0.54400
C172        C  0.32952141  0.29638601  0.50981538     0.09600
C173        C  0.37051089  0.37419786  0.51587749    -0.53900
C174        C  0.35706503  0.35808650  0.97824037     0.10200
H175        H  0.29253926  0.35162370  0.56861347     0.14700
H176        H  0.30858378  0.30749123  0.94968572     0.00400
H177        H  0.35323809  0.29913390  0.57158329     0.15000
H178        H  0.39616473  0.40116160  0.51866778     0.14800
C179        C  0.50181859  0.15071172  0.55404148     0.86600
C180        C  0.03451145  0.19093175  0.54645688    -0.53700
C181        C  0.03288064  0.20560208  0.50816905     0.09500
C182        C  0.49976843  0.18009526  0.98141678     0.20400
C183        C  0.46629353  0.15352526  0.54793925    -0.54400
C184        C  0.46454130  0.16822812  0.50976908     0.09600
C185        C  0.50299691  0.12883674  0.51528724    -0.53900
C186        C  0.50148023  0.14393117  0.97728229     0.10200
H187        H  0.05779654  0.20652138  0.56792679     0.14700
H188        H  0.49900291  0.19269265  0.95044955     0.00400
H189        H  0.44410121  0.14403419  0.57153171     0.15000
H190        H  0.50505159  0.10366812  0.51792491     0.14800
C191        C  0.14688666  0.49703621  0.55399004     0.86600
C192        C  0.15372168  0.46401309  0.54656042    -0.53700
C193        C  0.17001653  0.46549412  0.50836687     0.09500
C194        C  0.17884487  0.49963691  0.98128311     0.20400
C195        C  0.18529549  0.03224761  0.54755012    -0.54400
C196        C  0.20144764  0.03360580  0.50935650     0.09600
C197        C  0.12404442  0.49638480  0.51516476    -0.53900
C198        C  0.14085297  0.49787237  0.97691997     0.10200
H199        H  0.14589399  0.44082800  0.56822127     0.14700
H200        H  0.19263530  0.50118418  0.95042577     0.00400
H201        H  0.19829899  0.05466588  0.57074929     0.15000
H202        H  0.09697656  0.49480915  0.51763920     0.14800
Fe203      Fe  0.45241861  0.50119854  0.76385571     1.65800
Fe204      Fe  0.49807493  0.45184901  0.76386009     1.73200
Fe205      Fe  0.04854109  0.04807199  0.76408333     1.54400
O206        O  0.02997030  0.07481853  0.72271875    -0.81600
O207        O  0.03254747  0.46675085  0.81563909    -0.79900
O208        O  0.46882929  0.03601608  0.71216006    -0.84100
O209        O  0.47377268  0.04821063  0.80551109    -0.79000
O210        O  0.06661208  0.03204575  0.71188086    -0.80700
O211        O  0.45307883  0.42663285  0.80583482    -0.83500
C212        C  0.00436023  0.06771274  0.82565962     0.97300
C213        C  0.49958908  0.06514056  0.70269126     1.04700
O214        O  0.49944618  0.50006233  0.76360577    -1.12500
O215        O  0.46334259  0.43296720  0.71213687    -0.74900
O216        O  0.42525831  0.45585349  0.72248949    -0.78400
O217        O  0.03427601  0.06773778  0.81627669    -0.79100
C218        C  0.43437301  0.43473378  0.70271022     0.96200
O219        O  0.43320416  0.46714866  0.81635308    -0.77000
O220        O  0.04297518  0.47002410  0.72210118    -0.82200
C221        C  0.06220421  0.49683002  0.82534865     0.98800
C222        C  0.06459827  0.00120958  0.70269625     1.04700
O223        O  0.07413010  0.02815749  0.80549493    -0.77900
C224        C  0.43383713  0.43767865  0.82625675     1.03000
C225        C  0.12239297  0.02877864  0.60199700    -0.13300
C226        C  0.12751568  0.49767384  0.59490441     0.08900
C227        C  0.11170981  0.46770341  0.62418577    -0.13300
C228        C  0.09145279  0.46869591  0.65927282    -0.13300
C229        C  0.08715254  0.00043230  0.66659536     0.08900
C230        C  0.10270536  0.03011845  0.63727948    -0.13300
H231        H  0.13311214  0.05168981  0.57937021     0.12900
H232        H  0.11371852  0.44287675  0.62008242     0.12900
H233        H  0.07919885  0.44501028  0.68085670     0.12900
H234        H  0.09890275  0.05408199  0.64099039     0.12900
C235        C  0.14190067  0.02479348  0.90536777    -0.13300
C236        C  0.12251024  0.49618551  0.93612985     0.08900
C237        C  0.08507938  0.46815252  0.92984739    -0.13300
C238        C  0.06605970  0.46791420  0.89318899    -0.13300
C239        C  0.08391341  0.49611277  0.86233077     0.08900
C240        C  0.12251485  0.02505879  0.86886792    -0.13300
H241        H  0.17055087  0.04711750  0.91030294     0.12900
H242        H  0.07038970  0.44666086  0.95368953     0.12900
H243        H  0.03692875  0.44625602  0.88967723     0.12900
H244        H  0.13670000  0.04745086  0.84590108     0.12900
C245        C  0.03255487  0.11957857  0.93001792    -0.13300
C246        C  0.50384781  0.12783605  0.93643725     0.08900
C247        C  0.47656942  0.11874367  0.90488266    -0.13300
C248        C  0.47690625  0.09970643  0.86824114    -0.13300
C249        C  0.00509624  0.09039878  0.86234632     0.08900
C250        C  0.03341205  0.10138905  0.89317377    -0.13300
H251        H  0.05403450  0.12672574  0.95393153     0.12900
H252        H  0.45423210  0.12499775  0.90940908     0.12900
H253        H  0.45489600  0.09182094  0.84486516     0.12900
H254        H  0.05551652  0.09467235  0.88961680     0.12900
C255        C  0.47033934  0.07344070  0.63719271    -0.13300
C256        C  0.49995139  0.08830444  0.66657725     0.08900
C257        C  0.02992363  0.12498069  0.66055268    -0.13300
C258        C  0.03058409  0.14614488  0.62540132    -0.13300
C259        C  0.50136737  0.13086229  0.59514902     0.08900
C260        C  0.47113392  0.09434937  0.60199018    -0.13300
H261        H  0.44683619  0.04521673  0.64081617     0.12900
H262        H  0.05302394  0.13727165  0.68290273     0.12900
H263        H  0.05454488  0.17389535  0.62211556     0.12900
H264        H  0.44827986  0.08162926  0.57934546     0.12900
C265        C  0.38316857  0.41428524  0.93159575    -0.13300
C266        C  0.37455762  0.37719190  0.93801346     0.08900
C267        C  0.38406535  0.35923665  0.90681817    -0.13300
C268        C  0.40315176  0.37869459  0.87010100    -0.13300
C269        C  0.41208958  0.41605313  0.86375074     0.08900
C270        C  0.40141334  0.43342139  0.89464346    -0.13300
H271        H  0.37586822  0.42848935  0.95535217     0.12900
H272        H  0.37771125  0.33061935  0.91148043     0.12900
H273        H  0.41102124  0.36462005  0.84680971     0.12900
H274        H  0.40808622  0.46221486  0.89082863     0.12900
C275        C  0.37558146  0.40788320  0.65871347    -0.13300
C276        C  0.41078910  0.41158898  0.66691472     0.08900
C277        C  0.42398624  0.39382286  0.63969869    -0.13300
C278        C  0.40297784  0.37374254  0.60450447    -0.13300
C279        C  0.36782146  0.37018997  0.59572917     0.08900
C280        C  0.35427669  0.38738436  0.62367342    -0.13600
H281        H  0.36465383  0.42128377  0.67908389     0.12900
H282        H  0.45110970  0.39624184  0.64487787     0.12900
H283        H  0.41464585  0.36152694  0.58339273     0.12900
H284        H  0.32804183  0.38654284  0.61832171     0.12900
C285        C  0.06372793  0.24080361  0.49356111    -0.13200
C286        C  0.09277689  0.26915349  0.48563576    -0.14800
C287        C  0.17392425  0.40599167  0.48592955    -0.13200
C288        C  0.17435080  0.43475234  0.49398366    -0.14800
C289        C  0.25827153  0.32449313  0.49396166    -0.13200
C290        C  0.22999848  0.32528768  0.48609319    -0.14800
C291        C  0.26534653  0.09503265  0.49047270    -0.13200
C292        C  0.23653823  0.06592853  0.49686377    -0.14800
C293        C  0.32670693  0.26140358  0.49729115    -0.13200
C294        C  0.32705454  0.23275212  0.49070997    -0.14800
C295        C  0.43225201  0.17126977  0.49800811    -0.13200
C296        C  0.40331708  0.17130859  0.49182538    -0.14800
C297        C  0.33010891  0.69852815  0.98953287     0.03200
C298        C  0.29744864  0.66318294  0.99043181    -0.12900
C299        C  0.29999950  0.63054349  0.99049347     0.00700
C300        C  0.33487676  0.63333069  0.48526760    -0.11500
C301        C  0.36790729  0.66842215  0.48556664     0.03200
C302        C  0.36566162  0.70123425  0.48669783    -0.10900
H303        H  0.27016276  0.66108951  0.99201809     0.08800
H304        H  0.33652961  0.60792365  0.48561565     0.06300
H305        H  0.39115570  0.72834999  0.48808600     0.06200
C306        C  0.19854513  0.82975815  0.98162432     0.03200
C307        C  0.20273962  0.86567519  0.98165337    -0.12900
C308        C  0.17098674  0.86982155  0.98207413     0.00700
C309        C  0.13499726  0.83799244  0.98219818    -0.11500
C310        C  0.13071149  0.80211672  0.98217786     0.03200
C311        C  0.16251413  0.79803900  0.98183864    -0.10900
H312        H  0.23057098  0.89025582  0.98288874     0.08800
H313        H  0.11042477  0.84113333  0.98381433     0.06300
H314        H  0.15923727  0.77028672  0.98317861     0.06200
C315        C  0.34813096  0.85044059  0.05543964     0.86600
C316        C  0.30833409  0.84373257  0.04718161    -0.53700
C317        C  0.29401333  0.82805076  0.00861150     0.09500
C318        C  0.32018254  0.81970439  0.48261457     0.20400
C319        C  0.34445908  0.81182686  0.04920470    -0.54400
C320        C  0.33019196  0.79597416  0.01072816     0.09600
C321        C  0.37101385  0.87381862  0.01709929    -0.53900
C322        C  0.35673551  0.85765781  0.47892173     0.10200
H323        H  0.29280074  0.85154618  0.06843629     0.14700
H324        H  0.30805461  0.80646161  0.45150299     0.00400
H325        H  0.35330204  0.79860578  0.07284146     0.15000
H326        H  0.39651913  0.90087216  0.02019596     0.14800
C327        C  0.50263825  0.65030960  0.05339611     0.86600
C328        C  0.03539974  0.69057283  0.04634690    -0.53700
C329        C  0.03397402  0.70568161  0.00830216     0.09500
C330        C  0.49951215  0.67901777  0.47953328     0.20400
C331        C  0.46720128  0.65332151  0.04744130    -0.54400
C332        C  0.46563486  0.66841709  0.00947049     0.09600
C333        C  0.50381395  0.62878622  0.01431715    -0.53900
C334        C  0.50206384  0.64325641  0.47585956     0.10200
H335        H  0.05848968  0.70599214  0.06810400     0.14700
H336        H  0.49858949  0.69130881  0.44841378     0.00400
H337        H  0.44488334  0.64358425  0.07090236     0.15000
H338        H  0.50566613  0.60348369  0.01654505     0.14800
C339        C  0.14694196  0.99708075  0.05422146     0.86600
C340        C  0.15366912  0.96396754  0.04682125    -0.53700
C341        C  0.17057500  0.96570929  0.00895702     0.09500
C342        C  0.17800779  0.99933910  0.48092817     0.20400
C343        C  0.18502847  0.53084632  0.04886548    -0.54400
C344        C  0.20194216  0.53297803  0.01100525     0.09600
C345        C  0.12472032  0.99677665  0.01491118    -0.53900
C346        C  0.13968248  0.99697472  0.47717203     0.10200
H347        H  0.14509424  0.94040608  0.06811502     0.14700
H348        H  0.19122690  0.00022400  0.44987470     0.00400
H349        H  0.19772622  0.55260640  0.07285650     0.15000
H350        H  0.09758596  0.99512145  0.01677146     0.14800
Fe351      Fe  0.45212483  0.00072675  0.26455790     1.65800
Fe352      Fe  0.49741527  0.95133479  0.26383561     1.73200
Fe353      Fe  0.04783952  0.54615446  0.26327005     1.54400
O354        O  0.02961136  0.57339666  0.22216963    -0.81600
O355        O  0.03072192  0.96560674  0.31638671    -0.79900
O356        O  0.46865107  0.53467229  0.21080499    -0.84100
O357        O  0.47341317  0.54686153  0.30425310    -0.79000
O358        O  0.06544264  0.53001465  0.21097651    -0.80700
O359        O  0.45131365  0.92531654  0.30470838    -0.83500
C360        C  0.00385774  0.56578985  0.32486137     0.97300
C361        C  0.49947502  0.56382921  0.20170121     1.04700
O362        O  0.49893682  0.99947438  0.26401969    -1.12500
O363        O  0.46382226  0.93373757  0.21143213    -0.74900
O364        O  0.42451006  0.95486461  0.22374438    -0.78400
O365        O  0.03365645  0.56552860  0.31567613    -0.79100
C366        C  0.43419201  0.93457648  0.20306639     0.96200
O367        O  0.43345240  0.96710553  0.31732754    -0.77000
O368        O  0.04332507  0.97014298  0.22305314    -0.82200
C369        C  0.06101182  0.99528800  0.32535713     0.98800
C370        C  0.06363205  0.49921073  0.20220267     1.04700
O371        O  0.07330199  0.52587424  0.30431639    -0.77900
C372        C  0.43297899  0.93688682  0.32613789     1.03000
C373        C  0.12110251  0.52685343  0.10151389    -0.13300
C374        C  0.12722835  0.99768845  0.09494254     0.08900
C375        C  0.11348998  0.96890842  0.12572029    -0.13300
C376        C  0.09316363  0.96987391  0.16079823    -0.13300
C377        C  0.08601237  0.49835574  0.16605371     0.08900
C378        C  0.10139105  0.52805055  0.13676500    -0.13300
H379        H  0.13186334  0.54986570  0.07901490     0.12900
H380        H  0.11749503  0.94514050  0.12303908     0.12900
H381        H  0.08256119  0.94709632  0.18357767     0.12900
H382        H  0.09753726  0.55197805  0.14053275     0.12900
C383        C  0.14090946  0.52146315  0.40369300    -0.13300
C384        C  0.12078860  0.99484258  0.43656279     0.08900
C385        C  0.08225806  0.96934893  0.43230211    -0.13300
C386        C  0.06330902  0.96894244  0.39552122    -0.13300
C387        C  0.08239182  0.99442482  0.36246540     0.08900
C388        C  0.12162688  0.52140051  0.36698198    -0.13300
H389        H  0.17029573  0.54239549  0.40721915     0.12900
H390        H  0.06669750  0.94991488  0.45768760     0.12900
H391        H  0.03339808  0.94941248  0.39353359     0.12900
H392        H  0.13655923  0.54210708  0.34247659     0.12900
C393        C  0.03204823  0.61709091  0.42951800    -0.13300
C394        C  0.50414988  0.62661624  0.43530559     0.08900
C395        C  0.47715193  0.61801227  0.40353674    -0.13300
C396        C  0.47711366  0.59855477  0.36712982    -0.13300
C397        C  0.00464907  0.58829251  0.36170500     0.08900
C398        C  0.03252038  0.59843568  0.39292296    -0.13300
H399        H  0.05324428  0.62371844  0.45365070     0.12900
H400        H  0.45532886  0.62505692  0.40767197     0.12900
H401        H  0.45540676  0.59122173  0.34348936     0.12900
H402        H  0.05405134  0.59087169  0.38975293     0.12900
C403        C  0.47013727  0.57298707  0.13673025    -0.13300
C404        C  0.50018175  0.58715435  0.16555418     0.08900
C405        C  0.03096364  0.62322076  0.15884623    -0.13300
C406        C  0.03191089  0.64454030  0.12373453    -0.13300
C407        C  0.50209876  0.63008359  0.09422978     0.08900
C408        C  0.47122236  0.59402975  0.10150805    -0.13300
H409        H  0.44602798  0.54519274  0.14080760     0.12900
H410        H  0.05452198  0.63491673  0.18059824     0.12900
H411        H  0.05659519  0.67170400  0.11982465     0.12900
H412        H  0.44799975  0.58181449  0.07929951     0.12900
C413        C  0.38511895  0.91454666  0.43308370    -0.13300
C414        C  0.37376083  0.87655544  0.43824476     0.08900
C415        C  0.38015907  0.85757868  0.40531929    -0.13300
C416        C  0.39916364  0.87690962  0.36840017    -0.13300
C417        C  0.41110130  0.91521210  0.36360586     0.08900
C418        C  0.40326770  0.93357054  0.39606605    -0.13300
H419        H  0.38010826  0.92962124  0.45792476     0.12900
H420        H  0.37162264  0.82824188  0.40880154     0.12900
H421        H  0.40471814  0.86204762  0.34380105     0.12900
H422        H  0.41217976  0.96305968  0.39343140     0.12900
C423        C  0.37393176  0.90447119  0.16154329    -0.13300
C424        C  0.41055038  0.91115546  0.16758970     0.08900
C425        C  0.42498594  0.89562043  0.13885870    -0.13300
C426        C  0.40387891  0.87508284  0.10405080    -0.13300
C427        C  0.36762412  0.86925654  0.09684609     0.08900
C428        C  0.35256402  0.88358841  0.12670810    -0.13600
H429        H  0.36192511  0.91575943  0.18347852     0.12900
H430        H  0.45310138  0.90013468  0.14257033     0.12900
H431        H  0.41639233  0.86455683  0.08177985     0.12900
H432        H  0.32494662  0.88001098  0.12320885     0.12900
C433        C  0.06488509  0.74106069  0.99424307    -0.13200
C434        C  0.09395277  0.76949153  0.98664415    -0.14800
C435        C  0.17496201  0.90637776  0.98675289    -0.13200
C436        C  0.17515560  0.93505665  0.99469499    -0.14800
C437        C  0.25927316  0.82452253  0.99357784    -0.13200
C438        C  0.23114845  0.82562272  0.98577866    -0.14800
C439        C  0.26639160  0.59439271  0.99410235    -0.13200
C440        C  0.23746706  0.56529987  0.99990704    -0.14800
C441        C  0.32728292  0.76085742  0.99861623    -0.13200
C442        C  0.32760026  0.73210969  0.99264196    -0.14800
C443        C  0.43331587  0.67132210  0.99765181    -0.13200
C444        C  0.40426174  0.67114808  0.99174944    -0.14800
C445        C  0.33052697  0.69902015  0.48782483     0.03200
C446        C  0.29763156  0.66385031  0.48764540    -0.12900
C447        C  0.29974241  0.63098173  0.48649634     0.00700
C448        C  0.33531119  0.63329600  0.98974153    -0.11500
C449        C  0.36807648  0.66857892  0.98893719     0.03200
C450        C  0.36541866  0.70115453  0.98872160    -0.10900
H451        H  0.27049315  0.66204005  0.48973081     0.08800
H452        H  0.33730797  0.60808915  0.99082599     0.06300
H453        H  0.39074083  0.72844882  0.98907913     0.06200
C454        C  0.19837719  0.82961636  0.48236116     0.03200
C455        C  0.20235988  0.86545210  0.48235841    -0.12900
C456        C  0.17049377  0.86942098  0.48209449     0.00700
C457        C  0.13457587  0.83747290  0.48156708    -0.11500
C458        C  0.13046083  0.80165372  0.48165485     0.03200
C459        C  0.16240122  0.79777808  0.48199380    -0.10900
H460        H  0.23010956  0.89011431  0.48402993     0.08800
H461        H  0.10990282  0.84047026  0.48264920     0.06300
H462        H  0.15925386  0.77008128  0.48336569     0.06200
C463        C  0.34872265  0.85120031  0.55589826     0.86600
C464        C  0.30895328  0.84462148  0.54770306    -0.53700
C465        C  0.29430382  0.82851041  0.50940868     0.09500
C466        C  0.32020720  0.81980060  0.98168443     0.20400
C467        C  0.34471028  0.81233935  0.55025251    -0.54400
C468        C  0.33022383  0.79610430  0.51195209     0.09600
C469        C  0.37149726  0.87394280  0.51716450    -0.53900
C470        C  0.35661848  0.85797866  0.97863561     0.10200
H471        H  0.29352963  0.85256427  0.56896163     0.14700
H472        H  0.30834007  0.80690484  0.95036049     0.00400
H473        H  0.35372074  0.79935016  0.57399080     0.15000
H474        H  0.39715398  0.90091456  0.51984975     0.14800
C475        C  0.50198464  0.64999293  0.55274199     0.86600
C476        C  0.03473125  0.69025396  0.54553850    -0.53700
C477        C  0.03350571  0.70512330  0.50724375     0.09500
C478        C  0.49985756  0.67980212  0.98065254     0.20400
C479        C  0.46650457  0.65287960  0.54622922    -0.54400
C480        C  0.46509249  0.66772774  0.50799167     0.09600
C481        C  0.50341489  0.62826343  0.51400746    -0.53900
C482        C  0.50233982  0.64403100  0.97637359     0.10200
H483        H  0.05769365  0.70584214  0.56739590     0.14700
H484        H  0.49880236  0.69232569  0.94975219     0.00400
H485        H  0.44404971  0.64321382  0.56950267     0.15000
H486        H  0.50530956  0.60300199  0.51659270     0.14800
C487        C  0.14667872  0.99700570  0.55408574     0.86600
C488        C  0.15377477  0.96410102  0.54694948    -0.53700
C489        C  0.16988053  0.96533772  0.50867754     0.09500
C490        C  0.17972118  0.00031376  0.98180173     0.20400
C491        C  0.18571185  0.53216896  0.54796875    -0.54400
C492        C  0.20202514  0.53372937  0.50981060     0.09600
C493        C  0.12348779  0.99578783  0.51534291    -0.53900
C494        C  0.14177495  0.99857631  0.97719747     0.10200
H495        H  0.14618194  0.94112358  0.56885614     0.14700
H496        H  0.19349016  0.00161141  0.95100558     0.00400
H497        H  0.19869033  0.55438342  0.57140613     0.15000
H498        H  0.09642562  0.99419665  0.51799826     0.14800
Fe499      Fe  0.45316051  0.00224688  0.76483093     1.65800
Fe500      Fe  0.49864885  0.95290232  0.76472695     1.73200
Fe501      Fe  0.04782408  0.54709829  0.76338719     1.54400
O502        O  0.02946604  0.57367009  0.72155616    -0.81600
O503        O  0.03306233  0.96772795  0.81650586    -0.79900
O504        O  0.46817777  0.53546358  0.71155258    -0.84100
O505        O  0.47263784  0.54673405  0.80520551    -0.79000
O506        O  0.06626054  0.53114017  0.71157590    -0.80700
O507        O  0.45340720  0.92770209  0.80664423    -0.83500
C508        C  0.00334992  0.56644496  0.82504468     0.97300
C509        C  0.49907554  0.56427633  0.70174394     1.04700
O510        O  0.50013740  0.00109584  0.76448037    -1.12500
O511        O  0.46405548  0.93426071  0.71297181    -0.74900
O512        O  0.42547737  0.95642674  0.72406254    -0.78400
O513        O  0.03334222  0.56681276  0.81525552    -0.79100
C514        C  0.43478259  0.93558999  0.70397314     0.96200
O515        O  0.43421789  0.96869067  0.81779245    -0.77000
O516        O  0.04367274  0.97104450  0.72298154    -0.82200
C517        C  0.06300592  0.99767735  0.82582290     0.98800
C518        C  0.06410471  0.50030051  0.70215651     1.04700
O519        O  0.07322475  0.52737671  0.80523328    -0.77900
C520        C  0.43440860  0.93891975  0.82733422     1.03000
C521        C  0.12290279  0.52873588  0.60233428    -0.13300
C522        C  0.12756289  0.99797680  0.59512203     0.08900
C523        C  0.11265567  0.96860219  0.62518164    -0.13300
C524        C  0.09255789  0.96980041  0.66035379    -0.13300
C525        C  0.08674227  0.49967013  0.66614935     0.08900
C526        C  0.10304722  0.52985653  0.63753422    -0.13300
H527        H  0.13422008  0.55204960  0.58022378     0.12900
H528        H  0.11528306  0.94407274  0.62165195     0.12900
H529        H  0.08097338  0.94653558  0.68252103     0.12900
H530        H  0.09973735  0.55407319  0.64172944     0.12900
C531        C  0.14109053  0.52355986  0.90472637    -0.13300
C532        C  0.12360964  0.99685696  0.93628010     0.08900
C533        C  0.08651288  0.96828384  0.92950208    -0.13300
C534        C  0.06746006  0.96808179  0.89288762    -0.13300
C535        C  0.08492454  0.99686707  0.86258022     0.08900
C536        C  0.12175048  0.52380622  0.86818660    -0.13300
H537        H  0.16998706  0.54546471  0.90925515     0.12900
H538        H  0.07206852  0.94639170  0.95299259     0.12900
H539        H  0.03854811  0.94598825  0.88905419     0.12900
H540        H  0.13620179  0.54574323  0.84477643     0.12900
C541        C  0.03171739  0.61732578  0.92987940    -0.13300
C542        C  0.50440058  0.62766425  0.93553786     0.08900
C543        C  0.47787804  0.61997266  0.90340880    -0.13300
C544        C  0.47755260  0.60037280  0.86695158    -0.13300
C545        C  0.00436507  0.58911577  0.86183695     0.08900
C546        C  0.03192185  0.59856271  0.89327304    -0.13300
H547        H  0.05262939  0.62331930  0.95418174     0.12900
H548        H  0.45654117  0.62771294  0.90734895     0.12900
H549        H  0.45617752  0.59367270  0.84305151     0.12900
H550        H  0.05294811  0.59029504  0.89028749     0.12900
C551        C  0.46953906  0.57307348  0.63667100    -0.13300
C552        C  0.49961749  0.58740649  0.66545462     0.08900
C553        C  0.03037282  0.62343964  0.65851275    -0.13300
C554        C  0.03123265  0.64459640  0.62327970    -0.13300
C555        C  0.50137398  0.63001641  0.59384094     0.08900
C556        C  0.47054488  0.59396250  0.60130446    -0.13300
H557        H  0.44548768  0.54526107  0.64088429     0.12900
H558        H  0.05398780  0.63524253  0.68018539     0.12900
H559        H  0.05593337  0.67172446  0.61919602     0.12900
H560        H  0.44732212  0.58161044  0.57910556     0.12900
C561        C  0.38480232  0.91534335  0.93341913    -0.13300
C562        C  0.37402999  0.87745206  0.93837382     0.08900
C563        C  0.38164500  0.85913546  0.90578412    -0.13300
C564        C  0.40110361  0.87893610  0.86933909    -0.13300
C565        C  0.41233235  0.91707317  0.86461095     0.08900
C566        C  0.40343145  0.93485856  0.89676832    -0.13300
H567        H  0.37895182  0.92992177  0.95811742     0.12900
H568        H  0.37366294  0.82993314  0.90917829     0.12900
H569        H  0.40750121  0.86451552  0.84497950     0.12900
H570        H  0.41181870  0.96422043  0.89415628     0.12900
C571        C  0.37539308  0.90737134  0.66075974    -0.13300
C572        C  0.41116666  0.91224408  0.66830653     0.08900
C573        C  0.42492115  0.89530994  0.64061114    -0.13300
C574        C  0.40397291  0.87501917  0.60551751    -0.13300
C575        C  0.36839198  0.87054906  0.59715047     0.08900
C576        C  0.35414541  0.88666624  0.62574448    -0.13600
H577        H  0.36396734  0.91997053  0.68164121     0.12900
H578        H  0.45243413  0.89853387  0.64534381     0.12900
H579        H  0.41603147  0.86340173  0.58409888     0.12900
H580        H  0.32732294  0.88470319  0.62105319     0.12900
C581        C  0.06454382  0.74043567  0.49307742    -0.13200
C582        C  0.09368447  0.76888706  0.48564928    -0.14800
C583        C  0.17425393  0.90591099  0.48672713    -0.13200
C584        C  0.17442523  0.93460434  0.49458096    -0.14800
C585        C  0.25937830  0.82478481  0.49460004    -0.13200
C586        C  0.23111796  0.82568788  0.48684353    -0.14800
C587        C  0.26595326  0.59499704  0.49055496    -0.13200
C588        C  0.23715506  0.56602844  0.49743848    -0.14800
C589        C  0.32780114  0.76119372  0.49974027    -0.13200
C590        C  0.32832708  0.73267661  0.49271157    -0.14800
C591        C  0.43276846  0.67046088  0.49551625    -0.13200
C592        C  0.40386631  0.67046760  0.48892318    -0.14800
C593        C  0.83025147  0.19926781  0.98709155     0.03200
C594        C  0.79773171  0.16383846  0.98804938    -0.12900
C595        C  0.80053670  0.13135787  0.98869140     0.00700
C596        C  0.83436593  0.13375532  0.48773115    -0.11500
C597        C  0.86724850  0.16896570  0.48802994     0.03200
C598        C  0.86474517  0.20163261  0.48768941    -0.10900
H599        H  0.77036408  0.16156817  0.98955879     0.08800
H600        H  0.83620673  0.10846945  0.48909840     0.06300
H601        H  0.89010681  0.22885930  0.48903593     0.06200
C602        C  0.69863824  0.32971798  0.98111842     0.03200
C603        C  0.70266358  0.36554667  0.98064177    -0.12900
C604        C  0.67081403  0.36949254  0.98120800     0.00700
C605        C  0.63491055  0.33758550  0.98195900    -0.11500
C606        C  0.63081628  0.30180362  0.98241186     0.03200
C607        C  0.66270443  0.29789039  0.98197801    -0.10900
H608        H  0.73044570  0.39022640  0.98141133     0.08800
H609        H  0.61027208  0.34061094  0.98367166     0.06300
H610        H  0.65958354  0.27021368  0.98369267     0.06200
C611        C  0.84834762  0.35060497  0.05492931     0.86600
C612        C  0.80871397  0.34431417  0.04654374    -0.53700
C613        C  0.79442213  0.32877257  0.00792723     0.09500
C614        C  0.81921037  0.32009666  0.48108566     0.20400
C615        C  0.84416544  0.31174378  0.04864742    -0.54400
C616        C  0.82993654  0.29611858  0.01005683     0.09600
C617        C  0.87152644  0.37388232  0.01668865    -0.53900
C618        C  0.85559299  0.35819244  0.47759866     0.10200
H619        H  0.79310524  0.35191916  0.06794221     0.14700
H620        H  0.80698284  0.30708802  0.44991113     0.00400
H621        H  0.85275898  0.29826245  0.07222441     0.15000
H622        H  0.89720979  0.40078538  0.01979361     0.14800
C623        C  0.00188699  0.15037427  0.05427031     0.86600
C624        C  0.53511965  0.19039652  0.04712861    -0.53700
C625        C  0.53401702  0.20558220  0.00903182     0.09500
C626        C  0.99866556  0.17933739  0.48083581     0.20400
C627        C  0.96688787  0.15418699  0.04822314    -0.54400
C628        C  0.96568944  0.16938536  0.01015203     0.09600
C629        C  0.00256617  0.12849436  0.01524065    -0.53900
C630        C  0.00132365  0.14359352  0.47708728     0.10200
H631        H  0.55812961  0.20570558  0.06901698     0.14700
H632        H  0.99745777  0.19151465  0.44975202     0.00400
H633        H  0.94456739  0.14485112  0.07162634     0.15000
H634        H  0.00406821  0.10300164  0.01748485     0.14800
C635        C  0.64606056  0.49576933  0.05383774     0.86600
C636        C  0.65278332  0.46273836  0.04598858    -0.53700
C637        C  0.66972379  0.46484548  0.00804072     0.09500
C638        C  0.67858055  0.49979996  0.48099293     0.20400
C639        C  0.68590017  0.03216392  0.04895154    -0.54400
C640        C  0.70282339  0.03392771  0.01117197     0.09600
C641        C  0.62384876  0.49582447  0.01472806    -0.53900
C642        C  0.64046663  0.49780743  0.47711969     0.10200
H643        H  0.64440272  0.43912832  0.06715715     0.14700
H644        H  0.69190858  0.50085617  0.44995742     0.00400
H645        H  0.69854557  0.05418439  0.07265331     0.15000
H646        H  0.59671096  0.49414289  0.01680405     0.14800
Fe647      Fe  0.95265782  0.50094752  0.26346790     1.65800
Fe648      Fe  0.99760919  0.45111313  0.26407308     1.73200
Fe649      Fe  0.54726482  0.04628520  0.26400853     1.54400
O650        O  0.52864453  0.07362879  0.22349793    -0.81600
O651        O  0.53141092  0.46584409  0.31634610    -0.79900
O652        O  0.96772607  0.03460780  0.21196726    -0.84100
O653        O  0.97288949  0.04667197  0.30550085    -0.79000
O654        O  0.56493271  0.03078043  0.21108844    -0.80700
O655        O  0.95188635  0.42594080  0.30531039    -0.83500
C656        C  0.50331867  0.06553109  0.32622424     0.97300
C657        C  0.99845585  0.06396066  0.20299615     1.04700
O658        O  0.99936119  0.49940262  0.26350700    -1.12500
O659        O  0.96351159  0.43272165  0.21197778    -0.74900
O660        O  0.92509772  0.45516812  0.22277195    -0.78400
O661        O  0.53308645  0.06517324  0.31703499    -0.79100
C662        C  0.93431879  0.43417396  0.20289498     0.96200
O663        O  0.93335186  0.46746376  0.31624255    -0.77000
O664        O  0.54304236  0.46919142  0.22291807    -0.82200
C665        C  0.56164001  0.49562386  0.32528084     0.98800
C666        C  0.56364231  0.00021409  0.20230165     1.04700
O667        O  0.57285679  0.02559843  0.30444088    -0.77900
C668        C  0.93305837  0.43747456  0.32578233     1.03000
C669        C  0.62091450  0.02783928  0.10117266    -0.13300
C670        C  0.62637287  0.49613890  0.09456353     0.08900
C671        C  0.61154475  0.46666149  0.12448983    -0.13300
C672        C  0.59145066  0.46774701  0.15972415    -0.13300
C673        C  0.58638099  0.99969555  0.16623836     0.08900
C674        C  0.60089163  0.02889888  0.13628589    -0.13300
H675        H  0.63100465  0.05043369  0.07817557     0.12900
H676        H  0.61443568  0.44228802  0.12092847     0.12900
H677        H  0.57997584  0.44448806  0.18189925     0.12900
H678        H  0.59610496  0.05229206  0.13944475     0.12900
C679        C  0.64038292  0.01928433  0.40290057    -0.13300
C680        C  0.62175170  0.49574667  0.43647687     0.08900
C681        C  0.58371231  0.46892410  0.43138963    -0.13300
C682        C  0.56471477  0.46834313  0.39458126    -0.13300
C683        C  0.58323001  0.49499564  0.36236293     0.08900
C684        C  0.62118847  0.01939334  0.36619309    -0.13300
H685        H  0.67013022  0.03920653  0.40570486     0.12900
H686        H  0.56856619  0.44860342  0.45619446     0.12900
H687        H  0.53514126  0.44771061  0.39197135     0.12900
H688        H  0.63651648  0.03913440  0.34098065     0.12900
C689        C  0.53094749  0.11649422  0.43130815    -0.13300
C690        C  0.00357843  0.12688495  0.43650856     0.08900
C691        C  0.97723344  0.11899753  0.40412772    -0.13300
C692        C  0.97719264  0.09933920  0.36784574    -0.13300
C693        C  0.50411915  0.08814863  0.36307832     0.08900
C694        C  0.53142529  0.09763394  0.39484593    -0.13300
H695        H  0.55172097  0.12258661  0.45581158     0.12900
H696        H  0.95584324  0.12671014  0.40768856     0.12900
H697        H  0.95596003  0.09259471  0.34375288     0.12900
H698        H  0.55250026  0.08940444  0.39218400     0.12900
C699        C  0.96831807  0.07400747  0.13914750    -0.13300
C700        C  0.99909784  0.08738061  0.16689978     0.08900
C701        C  0.53078424  0.12259713  0.15886596    -0.13300
C702        C  0.53184582  0.14381827  0.12360996    -0.13300
C703        C  0.00119067  0.13021537  0.09527732     0.08900
C704        C  0.96950658  0.09496048  0.10373064    -0.13300
H705        H  0.94353591  0.04684252  0.14415299     0.12900
H706        H  0.55503559  0.13362261  0.17956849     0.12900
H707        H  0.55733684  0.17010397  0.11851732     0.12900
H708        H  0.94570722  0.08326803  0.08231103     0.12900
C709        C  0.88417168  0.41523542  0.43200808    -0.13300
C710        C  0.87261736  0.37718234  0.43705455     0.08900
C711        C  0.87908652  0.35818696  0.40425169    -0.13300
C712        C  0.89846856  0.37755467  0.36759385    -0.13300
C713        C  0.91071884  0.41591696  0.36294653     0.08900
C714        C  0.90271940  0.43432664  0.39518561    -0.13300
H715        H  0.87910541  0.43029634  0.45681790     0.12900
H716        H  0.87039897  0.32880835  0.40769526     0.12900
H717        H  0.90412221  0.36268183  0.34309731     0.12900
H718        H  0.91186884  0.46387367  0.39256436     0.12900
C719        C  0.87495322  0.40615238  0.15991904    -0.13300
C720        C  0.91062233  0.41076481  0.16742570     0.08900
C721        C  0.92416124  0.39353244  0.13990567    -0.13300
C722        C  0.90314572  0.37332515  0.10485455    -0.13300
C723        C  0.86775614  0.36929441  0.09641333     0.08900
C724        C  0.85364535  0.38554638  0.12494783    -0.13600
H725        H  0.86369795  0.41895822  0.18073716     0.12900
H726        H  0.95157664  0.39653046  0.14468279     0.12900
H727        H  0.91507046  0.36157254  0.08343488     0.12900
H728        H  0.82697021  0.38388629  0.12014472     0.12900
C729        C  0.56511381  0.24080712  0.99502247    -0.13200
C730        C  0.59417619  0.26916019  0.98728161    -0.14800
C731        C  0.67463866  0.40596538  0.98554979    -0.13200
C732        C  0.67462040  0.43450942  0.99349244    -0.14800
C733        C  0.75962759  0.32505864  0.99296588    -0.13200
C734        C  0.73136982  0.32586232  0.98518228    -0.14800
C735        C  0.76708524  0.09518371  0.99307425    -0.13200
C736        C  0.73825847  0.06617381  0.99960899    -0.14800
C737        C  0.82706255  0.26118732  0.99741057    -0.13200
C738        C  0.82749057  0.23262980  0.99066466    -0.14800
C739        C  0.93371058  0.17269254  0.99788924    -0.13200
C740        C  0.90481487  0.17260130  0.99116187    -0.14800
C741        C  0.82949201  0.19915993  0.48713905     0.03200
C742        C  0.79672547  0.16388139  0.48671649    -0.12900
C743        C  0.79909990  0.13114092  0.48710627     0.00700
C744        C  0.83596392  0.13437018  0.98831303    -0.11500
C745        C  0.86858443  0.16976367  0.98738138     0.03200
C746        C  0.86567863  0.20218044  0.98658952    -0.10900
H747        H  0.76946820  0.16190504  0.48738063     0.08800
H748        H  0.83816120  0.10929308  0.99000703     0.06300
H749        H  0.89088181  0.22956737  0.98705827     0.06200
C750        C  0.69740836  0.32936422  0.48144847     0.03200
C751        C  0.70161823  0.36527244  0.48130272    -0.12900
C752        C  0.66989133  0.36943840  0.48120583     0.00700
C753        C  0.63388504  0.33763656  0.48096372    -0.11500
C754        C  0.62957078  0.30174610  0.48114758     0.03200
C755        C  0.66136945  0.29764836  0.48130388    -0.10900
H756        H  0.72944232  0.38984360  0.48284077     0.08800
H757        H  0.60931959  0.34080734  0.48226025     0.06300
H758        H  0.65807128  0.26989389  0.48282832     0.06200
C759        C  0.84801672  0.35104948  0.55448574     0.86600
C760        C  0.80807528  0.34422932  0.54682483    -0.53700
C761        C  0.79333148  0.32841986  0.50843417     0.09500
C762        C  0.82040236  0.32023450  0.98109081     0.20400
C763        C  0.84417629  0.31232540  0.54816907    -0.54400
C764        C  0.82952082  0.29638330  0.50980969     0.09600
C765        C  0.87052435  0.37419386  0.51587842    -0.53900
C766        C  0.85706176  0.35808846  0.97824346     0.10200
H767        H  0.79255044  0.35162741  0.56861099     0.14700
H768        H  0.80857848  0.30749401  0.94968976     0.00400
H769        H  0.85323120  0.29912087  0.57157923     0.15000
H770        H  0.89618099  0.40115494  0.51867107     0.14800
C771        C  0.00182000  0.15071378  0.55404128     0.86600
C772        C  0.53451164  0.19092952  0.54646159    -0.53700
C773        C  0.53288861  0.20560129  0.50817246     0.09500
C774        C  0.99977162  0.18010060  0.98141205     0.20400
C775        C  0.96629163  0.15352167  0.54794663    -0.54400
C776        C  0.96453415  0.16822571  0.50977951     0.09600
C777        C  0.00299753  0.12884070  0.51528416    -0.53900
C778        C  0.00147945  0.14393531  0.97727252     0.10200
H779        H  0.55778695  0.20652389  0.56794280     0.14700
H780        H  0.99900862  0.19270155  0.95044620     0.00400
H781        H  0.94410231  0.14402784  0.57154290     0.15000
H782        H  0.00505787  0.10367529  0.51791823     0.14800
C783        C  0.64689141  0.49703332  0.55400167     0.86600
C784        C  0.65372828  0.46401219  0.54656890    -0.53700
C785        C  0.67001963  0.46549431  0.50837258     0.09500
C786        C  0.67884831  0.49964512  0.98127942     0.20400
C787        C  0.68529773  0.03224593  0.54753919    -0.54400
C788        C  0.70144865  0.03360302  0.50934498     0.09600
C789        C  0.62404477  0.49638106  0.51518010    -0.53900
C790        C  0.64085363  0.49787407  0.97691630     0.10200
H791        H  0.64590694  0.44082935  0.56823198     0.14700
H792        H  0.69263964  0.50119467  0.95042217     0.00400
H793        H  0.69830397  0.05466281  0.57073955     0.15000
H794        H  0.59697633  0.49480416  0.51765940     0.14800
Fe795      Fe  0.95241616  0.50118973  0.76385649     1.65800
Fe796      Fe  0.99808081  0.45184883  0.76386090     1.73200
Fe797      Fe  0.54853860  0.04807143  0.76407900     1.54400
O798        O  0.52995891  0.07481110  0.72271925    -0.81600
O799        O  0.53253940  0.46674509  0.81564073    -0.79900
O800        O  0.96884202  0.03602124  0.71215082    -0.84100
O801        O  0.97377892  0.04822417  0.80549909    -0.79000
O802        O  0.56661122  0.03205127  0.71187134    -0.80700
O803        O  0.95308647  0.42662955  0.80583971    -0.83500
C804        C  0.50435567  0.06770151  0.82566804     0.97300
C805        C  0.99960212  0.06514651  0.70268608     1.04700
O806        O  0.99944604  0.50005897  0.76360550    -1.12500
O807        O  0.96334619  0.43296024  0.71214045    -0.74900
O808        O  0.92525834  0.45584216  0.72249329    -0.78400
O809        O  0.53427317  0.06773234  0.81627795    -0.79100
C810        C  0.93437492  0.43472372  0.70271432     0.96200
O811        O  0.93320812  0.46714301  0.81635555    -0.77000
O812        O  0.54297116  0.47001873  0.72210487    -0.82200
C813        C  0.56219633  0.49682366  0.82535235     0.98800
C814        C  0.56459827  0.00121602  0.70268373     1.04700
O815        O  0.57413664  0.02816364  0.80548520    -0.77900
C816        C  0.93384387  0.43767491  0.82626100     1.03000
C817        C  0.62241432  0.02879551  0.60199748    -0.13300
C818        C  0.62752354  0.49766938  0.59491869     0.08900
C819        C  0.61169556  0.46768694  0.62418344    -0.13300
C820        C  0.59143826  0.46867915  0.65927061    -0.13300
C821        C  0.58715094  0.00043841  0.66658066     0.08900
C822        C  0.60272833  0.03013687  0.63728133    -0.13300
H823        H  0.63315210  0.05171654  0.57938272     0.12900
H824        H  0.61368335  0.44284987  0.62006290     0.12900
H825        H  0.57916517  0.44498371  0.68084027     0.12900
H826        H  0.59894679  0.05411230  0.64100639     0.12900
C827        C  0.64191602  0.02478179  0.90534452    -0.13300
C828        C  0.62251041  0.49618390  0.93612673     0.08900
C829        C  0.58508765  0.46813455  0.92983457    -0.13300
C830        C  0.56606516  0.46789375  0.89317739    -0.13300
C831        C  0.58390806  0.49610604  0.86233142     0.08900
C832        C  0.62253153  0.02504554  0.86884213    -0.13300
H833        H  0.67057909  0.04708481  0.91025836     0.12900
H834        H  0.57040624  0.44663249  0.95366878     0.12900
H835        H  0.53693994  0.44622291  0.88965775     0.12900
H836        H  0.63672999  0.04741487  0.84585140     0.12900
C837        C  0.53253483  0.11953667  0.93004658    -0.13300
C838        C  0.00384837  0.12784663  0.93642514     0.08900
C839        C  0.97655263  0.11872794  0.90488623    -0.13300
C840        C  0.97689173  0.09969339  0.86824393    -0.13300
C841        C  0.50509184  0.09038366  0.86235893     0.08900
C842        C  0.53339024  0.10134489  0.89320301    -0.13300
H843        H  0.55400168  0.12666309  0.95397066     0.12900
H844        H  0.95420031  0.12495887  0.90942653     0.12900
H845        H  0.95486769  0.09178552  0.84488167     0.12900
H846        H  0.55547899  0.09460489  0.88965808     0.12900
C847        C  0.97038688  0.07341232  0.63714191    -0.13300
C848        C  0.99996317  0.08830796  0.66657153     0.08900
C849        C  0.52995680  0.12494494  0.66050606    -0.13300
C850        C  0.53062294  0.14610889  0.62535288    -0.13300
C851        C  0.00137033  0.13086379  0.59514739     0.08900
C852        C  0.97117431  0.09432249  0.60194540    -0.13300
H853        H  0.94691770  0.04516457  0.64072843     0.12900
H854        H  0.55309091  0.13720988  0.68281376     0.12900
H855        H  0.55462567  0.17382707  0.62201953     0.12900
H856        H  0.94834740  0.08158130  0.57926865     0.12900
C857        C  0.88319330  0.41429506  0.93160928    -0.13300
C858        C  0.87455741  0.37719295  0.93801668     0.08900
C859        C  0.88404492  0.35922858  0.90681196    -0.13300
C860        C  0.90313577  0.37868542  0.87009572    -0.13300
C861        C  0.91209737  0.41605214  0.86375628     0.08900
C862        C  0.90144205  0.43343039  0.89465858    -0.13300
H863        H  0.87590912  0.42850683  0.95537251     0.12900
H864        H  0.87767203  0.33060447  0.91146605     0.12900
H865        H  0.91098856  0.36460361  0.84679622     0.12900
H866        H  0.90813355  0.46223020  0.89085191     0.12900
C867        C  0.87559326  0.40788935  0.65870355    -0.13300
C868        C  0.91079124  0.41157749  0.66691950     0.08900
C869        C  0.92398026  0.39379566  0.63971596    -0.13300
C870        C  0.90297396  0.37371767  0.60451922    -0.13300
C871        C  0.86782690  0.37018234  0.59573017     0.08900
C872        C  0.85429079  0.38739354  0.62366139    -0.13600
H873        H  0.86467213  0.42130332  0.67906293     0.12900
H874        H  0.95109677  0.39620100  0.64490633     0.12900
H875        H  0.91463678  0.36149110  0.58341632     0.12900
H876        H  0.82806583  0.38656930  0.61829610     0.12900
C877        C  0.56373756  0.24080530  0.49357341    -0.13200
C878        C  0.59278756  0.26915623  0.48565496    -0.14800
C879        C  0.67393029  0.40599497  0.48593223    -0.13200
C880        C  0.67435576  0.43475480  0.49398676    -0.14800
C881        C  0.75828454  0.32450452  0.49395700    -0.13200
C882        C  0.73001084  0.32529819  0.48609114    -0.14800
C883        C  0.76534448  0.09502981  0.49045821    -0.13200
C884        C  0.73653818  0.06592482  0.49685064    -0.14800
C885        C  0.82669988  0.26139955  0.49728082    -0.13200
C886        C  0.82704472  0.23274753  0.49069567    -0.14800
C887        C  0.93224477  0.17126931  0.49802681    -0.13200
C888        C  0.90331144  0.17131054  0.49184333    -0.14800
C889        C  0.83011900  0.69854220  0.98950842     0.03200
C890        C  0.79745430  0.66319984  0.99040859    -0.12900
C891        C  0.79999805  0.63055626  0.99047956     0.00700
C892        C  0.83487488  0.63333343  0.48527651    -0.11500
C893        C  0.86790600  0.66842454  0.48556996     0.03200
C894        C  0.86566138  0.70123748  0.48669566    -0.10900
H895        H  0.77017088  0.66111205  0.99199112     0.08800
H896        H  0.83652701  0.60792588  0.48562783     0.06300
H897        H  0.89115587  0.72835302  0.48807890     0.06200
C898        C  0.69854916  0.82976710  0.98163426     0.03200
C899        C  0.70274654  0.86568537  0.98165689    -0.12900
C900        C  0.67099524  0.86983435  0.98207154     0.00700
C901        C  0.63500452  0.83800663  0.98219697    -0.11500
C902        C  0.63071628  0.80212970  0.98218222     0.03200
C903        C  0.66251731  0.79804963  0.98184790    -0.10900
H904        H  0.73057897  0.89026518  0.98289190     0.08800
H905        H  0.61043327  0.84114963  0.98380880     0.06300
H906        H  0.65923842  0.77029635  0.98319210     0.06200
C907        C  0.84814053  0.85044973  0.05543804     0.86600
C908        C  0.80833587  0.84372703  0.04719627    -0.53700
C909        C  0.79401029  0.82804627  0.00862686     0.09500
C910        C  0.82018898  0.81971640  0.48261781     0.20400
C911        C  0.84448572  0.81184491  0.04918929    -0.54400
C912        C  0.83021134  0.79599193  0.01071495     0.09600
C913        C  0.87100775  0.87383772  0.01709420    -0.53900
C914        C  0.85674299  0.85767077  0.47893496     0.10200
H915        H  0.79280584  0.85154169  0.06845447     0.14700
H916        H  0.80806378  0.80647936  0.45150308     0.00400
H917        H  0.85334270  0.79862878  0.07281706     0.15000
H918        H  0.89650839  0.90089628  0.02018765     0.14800
C919        C  0.00263368  0.65030171  0.05339869     0.86600
C920        C  0.53540575  0.69058016  0.04634482    -0.53700
C921        C  0.53398203  0.70568940  0.00829954     0.09500
C922        C  0.99950934  0.67901261  0.47953513     0.20400
C923        C  0.96719405  0.65330831  0.04744361    -0.54400
C924        C  0.96562690  0.66840528  0.00947416     0.09600
C925        C  0.00381366  0.62878106  0.01431835    -0.53900
C926        C  0.00205934  0.64324991  0.47586328     0.10200
H927        H  0.55848934  0.70600189  0.06810894     0.14700
H928        H  0.99858913  0.69130431  0.44841502     0.00400
H929        H  0.94487558  0.64356758  0.07090452     0.15000
H930        H  0.00566965  0.60348055  0.01654456     0.14800
C931        C  0.64695348  0.99708922  0.05422134     0.86600
C932        C  0.65367922  0.96397650  0.04681273    -0.53700
C933        C  0.67058262  0.96572140  0.00894591     0.09500
C934        C  0.67800508  0.99933955  0.48091461     0.20400
C935        C  0.68502635  0.53085228  0.04886230    -0.54400
C936        C  0.70194157  0.53298766  0.01100176     0.09600
C937        C  0.62473027  0.99679032  0.01491562    -0.53900
C938        C  0.63968391  0.99698289  0.47715920     0.10200
H939        H  0.64510705  0.94041413  0.06810418     0.14700
H940        H  0.69122329  0.00022317  0.44986046     0.00400
H941        H  0.69772069  0.55261272  0.07285318     0.15000
H942        H  0.59759662  0.99513644  0.01678213     0.14800
Fe943      Fe  0.95211940  0.00072327  0.26455799     1.65800
Fe944      Fe  0.99742015  0.95134372  0.26384313     1.73200
Fe945      Fe  0.54784140  0.54615105  0.26327107     1.54400
O946        O  0.52962063  0.57338971  0.22215599    -0.81600
O947        O  0.53072266  0.96559400  0.31637312    -0.79900
O948        O  0.96864653  0.53466571  0.21080566    -0.84100
O949        O  0.97341435  0.54686190  0.30425230    -0.79000
O950        O  0.56544882  0.53000524  0.21098629    -0.80700
O951        O  0.95131363  0.92532198  0.30471069    -0.83500
C952        C  0.50385872  0.56579531  0.32485639     0.97300
C953        C  0.99946685  0.56382929  0.20170944     1.04700
O954        O  0.99893471  0.99947834  0.26402283    -1.12500
O955        O  0.96383481  0.93374666  0.21143288    -0.74900
O956        O  0.92450435  0.95484873  0.22375965    -0.78400
O957        O  0.53365818  0.56553664  0.31566785    -0.79100
C958        C  0.93419669  0.93457247  0.20307382     0.96200
O959        O  0.93346150  0.96711688  0.31733935    -0.77000
O960        O  0.54331481  0.97012756  0.22303933    -0.82200
C961        C  0.56101187  0.99527505  0.32534529     0.98800
C962        C  0.56362784  0.49919827  0.20220397     1.04700
O963        O  0.57329609  0.52587243  0.30433142    -0.77900
C964        C  0.93298757  0.93689776  0.32614838     1.03000
C965        C  0.62110283  0.52685100  0.10151783    -0.13300
C966        C  0.62724013  0.99769155  0.09494445     0.08900
C967        C  0.61349679  0.96890562  0.12571519    -0.13300
C968        C  0.59316391  0.96986421  0.16079019    -0.13300
C969        C  0.58600409  0.49834303  0.16605047     0.08900
C970        C  0.60139079  0.52804453  0.13677022    -0.13300
H971        H  0.63187055  0.54986913  0.07902603     0.12900
H972        H  0.61750166  0.94513742  0.12302932     0.12900
H973        H  0.58255773  0.94708285  0.18356502     0.12900
H974        H  0.59754386  0.55197589  0.14054642     0.12900
C975        C  0.64090378  0.52145574  0.40370411    -0.13300
C976        C  0.62078920  0.99484503  0.43655076     0.08900
C977        C  0.58225937  0.96934752  0.43229223    -0.13300
C978        C  0.56330997  0.96893354  0.39550926    -0.13300
C979        C  0.58239201  0.99441203  0.36245085     0.08900
C980        C  0.62162192  0.52139257  0.36699240    -0.13300
H981        H  0.67029165  0.54238625  0.40722799     0.12900
H982        H  0.56670004  0.94991707  0.45768085     0.12900
H983        H  0.53339888  0.94940209  0.39352262     0.12900
H984        H  0.63655514  0.54209606  0.34248481     0.12900
C985        C  0.53206084  0.61711352  0.42950311    -0.13300
C986        C  0.00414675  0.62660844  0.43531071     0.08900
C987        C  0.97715871  0.61801814  0.40353326    -0.13300
C988        C  0.97712059  0.59856004  0.36712698    -0.13300
C989        C  0.50465153  0.58830092  0.36169856     0.08900
C990        C  0.53253295  0.59845917  0.39290727    -0.13300
H991        H  0.55326459  0.62375172  0.45362981     0.12900
H992        H  0.95534310  0.62507374  0.40766108     0.12900
H993        H  0.95542153  0.59123841  0.34347890     0.12900
H994        H  0.55407124  0.59090580  0.38973051     0.12900
C995        C  0.97015391  0.57295878  0.13670139    -0.13300
C996        C  0.00017078  0.58715258  0.16556364     0.08900
C997        C  0.53100456  0.62319669  0.15879599    -0.13300
C998        C  0.53195109  0.64451820  0.12368649    -0.13300
C999        C  0.00209156  0.63007607  0.09423358     0.08900
C1000       C  0.97123962  0.59400045  0.10147861    -0.13300
H1001       H  0.94606731  0.54514490  0.14074971     0.12900
H1002       H  0.55458793  0.63487022  0.18051255     0.12900
H1003       H  0.55666198  0.67165634  0.11973826     0.12900
H1004       H  0.94803880  0.58176800  0.07924192     0.12900
C1005       C  0.88517097  0.91457589  0.43311892    -0.13300
C1006       C  0.87377737  0.87657429  0.43826268     0.08900
C1007       C  0.88014522  0.85758917  0.40532140    -0.13300
C1008       C  0.89915017  0.87691868  0.36840200    -0.13300
C1009       C  0.91111872  0.91522901  0.36362305     0.08900
C1010       C  0.90332050  0.93359921  0.39610124    -0.13300
H1011       H  0.88018450  0.92965850  0.45797188     0.12900
H1012       H  0.87158270  0.82824477  0.40878977     0.12900
H1013       H  0.90467826  0.86204880  0.34378886     0.12900
H1014       H  0.91225849  0.96309505  0.39347822     0.12900
C1015       C  0.87391515  0.90440780  0.16159108    -0.13300
C1016       C  0.91055950  0.91115249  0.16759455     0.08900
C1017       C  0.92502381  0.89567782  0.13881989    -0.13300
C1018       C  0.90391770  0.87514147  0.10401043    -0.13300
C1019       C  0.86763807  0.86926204  0.09684451     0.08900
C1020       C  0.85254922  0.88352777  0.12675321    -0.13600
H1021       H  0.86188548  0.91564463  0.18356414     0.12900
H1022       H  0.95315928  0.90023855  0.14249978     0.12900
H1023       H  0.91644944  0.86465931  0.08170826     0.12900
H1024       H  0.82490677  0.87989456  0.12329448     0.12900
C1025       C  0.56489058  0.74107204  0.99424442    -0.13200
C1026       C  0.59395678  0.76950524  0.98664754    -0.14800
C1027       C  0.67497258  0.90639194  0.98674254    -0.13200
C1028       C  0.67516608  0.93507131  0.99468100    -0.14800
C1029       C  0.75927099  0.82452284  0.99359770    -0.13200
C1030       C  0.73114957  0.82562810  0.98579552    -0.14800
C1031       C  0.76638673  0.59440793  0.99409370    -0.13200
C1032       C  0.73746339  0.56531421  0.99990218    -0.14800
C1033       C  0.82730440  0.76087751  0.99859478    -0.13200
C1034       C  0.82761808  0.73212827  0.99261621    -0.14800
C1035       C  0.93330860  0.67131183  0.99765678    -0.13200
C1036       C  0.90425766  0.67114313  0.99174991    -0.14800
C1037       C  0.83052708  0.69902448  0.48782273     0.03200
C1038       C  0.79763119  0.66385470  0.48764875    -0.12900
C1039       C  0.79974088  0.63098528  0.48650449     0.00700
C1040       C  0.83530693  0.63330197  0.98973455    -0.11500
C1041       C  0.86807623  0.66858172  0.98892846     0.03200
C1042       C  0.86542566  0.70116133  0.98870349    -0.10900
H1043       H  0.77049287  0.66204521  0.48973356     0.08800
H1044       H  0.83729839  0.60809274  0.99082713     0.06300
H1045       H  0.89075092  0.72845324  0.98906086     0.06200
C1046       C  0.69838018  0.82962220  0.48235875     0.03200
C1047       C  0.70236051  0.86545717  0.48234811    -0.12900
C1048       C  0.67049262  0.86942341  0.48207489     0.00700
C1049       C  0.63457622  0.83747420  0.48154502    -0.11500
C1050       C  0.63046362  0.80165637  0.48164197     0.03200
C1051       C  0.66240516  0.79778262  0.48199104    -0.10900
H1052       H  0.73010869  0.89012021  0.48402153     0.08800
H1053       H  0.60990162  0.84046970  0.48262062     0.06300
H1054       H  0.65925912  0.77008676  0.48336929     0.06200
C1055       C  0.84872085  0.85119755  0.55590927     0.86600
C1056       C  0.80895203  0.84461935  0.54771293    -0.53700
C1057       C  0.79430710  0.82851689  0.50941409     0.09500
C1058       C  0.82020683  0.81981122  0.98168498     0.20400
C1059       C  0.84470830  0.81233714  0.55025479    -0.54400
C1060       C  0.83022683  0.79610997  0.51194981     0.09600
C1061       C  0.87150061  0.87394694  0.51718243    -0.53900
C1062       C  0.85660813  0.85799717  0.97863202     0.10200
H1063       H  0.79352315  0.85255094  0.56897783     0.14700
H1064       H  0.80833529  0.80691599  0.95036231     0.00400
H1065       H  0.85371358  0.79934180  0.57399125     0.15000
H1066       H  0.89715895  0.90091613  0.51987637     0.14800
C1067       C  0.00197602  0.64998640  0.55274513     0.86600
C1068       C  0.53473805  0.69026089  0.54553426    -0.53700
C1069       C  0.53350961  0.70512928  0.50724002     0.09500
C1070       C  0.99984963  0.67979332  0.98065581     0.20400
C1071       C  0.96649750  0.65287473  0.54622912    -0.54400
C1072       C  0.96508836  0.66772390  0.50799119     0.09600
C1073       C  0.00340729  0.62825655  0.51401206    -0.53900
C1074       C  0.00233512  0.64402424  0.97637539     0.10200
H1075       H  0.55770194  0.70584956  0.56739025     0.14700
H1076       H  0.99879280  0.69231703  0.94975590     0.00400
H1077       H  0.94404186  0.64321028  0.56950157     0.15000
H1078       H  0.00530008  0.60299402  0.51659907     0.14800
C1079       C  0.64667670  0.99700870  0.55407161     0.86600
C1080       C  0.65376491  0.96409894  0.54693225    -0.53700
C1081       C  0.66987087  0.96533504  0.50866060     0.09500
C1082       C  0.67972743  0.00032833  0.98179592     0.20400
C1083       C  0.68571573  0.53216696  0.54797766    -0.54400
C1084       C  0.70202533  0.53372937  0.50981667     0.09600
C1085       C  0.62349007  0.99579932  0.51532934    -0.53900
C1086       C  0.64178099  0.99859253  0.97719823     0.10200
H1087       H  0.64617164  0.94112137  0.56883960     0.14700
H1088       H  0.69349482  0.00162828  0.95099780     0.00400
H1089       H  0.69869647  0.55438074  0.57141555     0.15000
H1090       H  0.59642998  0.99421281  0.51798416     0.14800
Fe1091     Fe  0.95316477  0.00225741  0.76482421     1.65800
Fe1092     Fe  0.99864256  0.95290255  0.76473393     1.73200
Fe1093     Fe  0.54782712  0.54709863  0.76338916     1.54400
O1094       O  0.52947749  0.57367385  0.72155201    -0.81600
O1095       O  0.53307255  0.96773299  0.81649666    -0.79900
O1096       O  0.96816904  0.53545105  0.71155064    -0.84100
O1097       O  0.97263346  0.54672733  0.80520394    -0.79000
O1098       O  0.56626600  0.53113649  0.71158408    -0.80700
O1099       O  0.95339639  0.92771027  0.80664623    -0.83500
C1100       C  0.50335534  0.56645173  0.82504405     0.97300
C1101       C  0.99906426  0.56426800  0.70174541     1.04700
O1102       O  0.00013772  0.00109949  0.76448279    -1.12500
O1103       O  0.96405363  0.93426364  0.71297629    -0.74900
O1104       O  0.92548020  0.95643599  0.72406014    -0.78400
O1105       O  0.53334692  0.56681874  0.81525363    -0.79100
C1106       C  0.93478238  0.93559494  0.70397546     0.96200
O1107       O  0.93421378  0.96870538  0.81778695    -0.77000
O1108       O  0.54367507  0.97105064  0.72296920    -0.82200
C1109       C  0.56301338  0.99768481  0.82581502     0.98800
C1110       C  0.56410736  0.50029552  0.70216491     1.04700
O1111       O  0.57321762  0.52737175  0.80523998    -0.77900
C1112       C  0.93439816  0.93893176  0.82733083     1.03000
C1113       C  0.62293103  0.52874144  0.60236393    -0.13300
C1114       C  0.62756019  0.99798047  0.59510691     0.08900
C1115       C  0.61262416  0.96859125  0.62514719    -0.13300
C1116       C  0.59252806  0.96979101  0.66031957    -0.13300
C1117       C  0.58674901  0.49966465  0.66616258     0.08900
C1118       C  0.60307676  0.52986224  0.63756425    -0.13300
H1119       H  0.63426249  0.55206334  0.58026433     0.12900
H1120       H  0.61522593  0.94404823  0.62160035     0.12900
H1121       H  0.58092224  0.94651479  0.68247114     0.12900
H1122       H  0.59978343  0.55408777  0.64177056     0.12900
C1123       C  0.64108083  0.52357235  0.90473511    -0.13300
C1124       C  0.62360949  0.99687398  0.93628415     0.08900
C1125       C  0.58649577  0.96832832  0.92953186    -0.13300
C1126       C  0.56744423  0.96812391  0.89291588    -0.13300
C1127       C  0.58492752  0.99687937  0.86257866     0.08900
C1128       C  0.62173784  0.52381550  0.86819740    -0.13300
H1129       H  0.66997075  0.54548987  0.90927257     0.12900
H1130       H  0.57203828  0.94645672  0.95304153     0.12900
H1131       H  0.53852058  0.94605212  0.88910170     0.12900
H1132       H  0.63618140  0.54576368  0.84479665     0.12900
C1133       C  0.53171311  0.61731611  0.92988794    -0.13300
C1134       C  0.00439387  0.62765764  0.93553889     0.08900
C1135       C  0.97785908  0.61994915  0.90341961    -0.13300
C1136       C  0.97753368  0.60034913  0.86696232    -0.13300
C1137       C  0.50437217  0.58912283  0.86183613     0.08900
C1138       C  0.53191791  0.59855313  0.89328175    -0.13300
H1139       H  0.55261651  0.62329739  0.95419757     0.12900
H1140       H  0.95651324  0.62767643  0.90736793     0.12900
H1141       H  0.95614964  0.59363579  0.84307002     0.12900
H1142       H  0.55293487  0.59027221  0.89030328     0.12900
C1143       C  0.96952793  0.57306378  0.63667106    -0.13300
C1144       C  0.99960431  0.58739849  0.66545781     0.08900
C1145       C  0.53038868  0.62344559  0.65850515    -0.13300
C1146       C  0.53124778  0.64460204  0.62327170    -0.13300
C1147       C  0.00136214  0.63000920  0.59384470     0.08900
C1148       C  0.97053442  0.59395372  0.60130483    -0.13300
H1149       H  0.94547899  0.54524998  0.64088141     0.12900
H1150       H  0.55400567  0.63524703  0.68017466     0.12900
H1151       H  0.55595052  0.67172815  0.61918382     0.12900
H1152       H  0.94731331  0.58160108  0.57910341     0.12900
C1153       C  0.88478689  0.91536062  0.93341228    -0.13300
C1154       C  0.87401250  0.87746873  0.93836745     0.08900
C1155       C  0.88162255  0.85914959  0.90577675    -0.13300
C1156       C  0.90108128  0.87894829  0.86933173    -0.13300
C1157       C  0.91231558  0.91708666  0.86460442     0.08900
C1158       C  0.90341653  0.93487440  0.89676088    -0.13300
H1159       H  0.87893974  0.92994051  0.95811129     0.12900
H1160       H  0.87363837  0.82994626  0.90917147     0.12900
H1161       H  0.90747625  0.86452569  0.84497171     0.12900
H1162       H  0.91180758  0.96423750  0.89414890     0.12900
C1163       C  0.87540756  0.90740769  0.66073980    -0.13300
C1164       C  0.91116372  0.91224566  0.66831288     0.08900
C1165       C  0.92489985  0.89527495  0.64064593    -0.13300
C1166       C  0.90395077  0.87498177  0.60555405    -0.13300
C1167       C  0.86838598  0.87054253  0.59716361     0.08900
C1168       C  0.85415880  0.88669990  0.62572715    -0.13600
H1169       H  0.86399760  0.92003885  0.68159635     0.12900
H1170       H  0.95239918  0.89847242  0.64539819     0.12900
H1171       H  0.91599800  0.86333934  0.58415432     0.12900
H1172       H  0.82735490  0.88477183  0.62100847     0.12900
C1173       C  0.56454733  0.74043990  0.49307011    -0.13200
C1174       C  0.59368799  0.76888985  0.48563858    -0.14800
C1175       C  0.67424879  0.90591167  0.48670616    -0.13200
C1176       C  0.67441593  0.93460243  0.49456254    -0.14800
C1177       C  0.75938190  0.82479238  0.49460574    -0.13200
C1178       C  0.73112193  0.82569589  0.48684779    -0.14800
C1179       C  0.76595121  0.59500050  0.49056247    -0.13200
C1180       C  0.73715381  0.56603026  0.49744377    -0.14800
C1181       C  0.82780368  0.76120036  0.49973174    -0.13200
C1182       C  0.82832862  0.73268245  0.49270411    -0.14800
C1183       C  0.93276636  0.67046034  0.49551481    -0.13200
C1184       C  0.90386499  0.67046921  0.48892366    -0.14800
loop_ 
_geom_bond_atom_site_label_1 
_geom_bond_atom_site_label_2 
_geom_bond_distance 
_geom_bond_site_symmetry_2 
_ccdc_geom_bond_type 
C1            C2   1.402       .  A
C1          C154   1.403       .  A
C1          C146   1.442       .  S
C2            C3   1.402       .  A
C2            H7   1.085       .  S
C3          C152   1.401       .  A
C3          C143   1.442       .  S
C4            C5   1.403       .  A
C4          C151   1.402       .  A
C4            H8   1.085       .  S
C5            C6   1.403       .  A
C5          C296   1.445       .  S
C6          C149   1.404       .  A
C6            H9   1.085       .  S
C10          C11   1.403       .  A
C10          C15   1.401       .  A
C10         C142   1.441       .  S
C11          C12   1.401       .  A
C11          H16   1.085       .  S
C12          C13   1.402       .  A
C12         C139   1.440       .  S
C13          C14   1.400       .  A
C13          H17   1.085       .  S
C14          C15   1.402       .  A
C14         C138   1.440       .  S
C15          H18   1.085       .  S
C19          C20   1.542       .  S
C19          C25   1.536       .  S
C19          C23   1.538       .  S
C19         C131   1.524       .  S
C20          H27   1.082       .  S
C20          C21   1.363       .  D
C21         C170   1.538   1_554  S
C21         C141   1.442   1_554  S
C22          C26   1.537       .  S
C22         C169   1.539       .  S
C22         C172   1.539       .  S
C22          H28   1.111       .  S
C23          H29   1.087       .  S
C23          C24   1.363       .  D
C24         C170   1.537   1_554  S
C24         C145   1.443   1_554  S
C25          H30   1.087       .  S
C25         C174   1.363   1_554  D
C26         C173   1.364       .  D
C26         C118   1.476       .  S
C31          C37   1.535       .  S
C31          C35   1.539       .  S
C31         C624   1.542       .  S
C31         C111   1.526       .  S
C32         C623   1.542       .  S
C32          H39   1.082       .  S
C32          C33   1.363       .  D
C33         C774   1.537   1_454  S
C33         C137   1.440   1_554  S
C34          C38   1.538       .  S
C34         C773   1.539       .  S
C34         C184   1.540       .  S
C34          H40   1.111       .  S
C35          H41   1.087       .  S
C35          C36   1.363       .  D
C36         C182   1.537   1_554  S
C36         C147   1.443   1_554  S
C37          H42   1.087       .  S
C37         C186   1.364   1_554  D
C38         C185   1.363       .  D
C38          C98   1.478       .  S
C43          C44   1.542       .  S
C43          C49   1.534       .  S
C43         C343   1.536       .  S
C43          C78   1.522       .  S
C44          H51   1.082       .  S
C44          C45   1.365       .  D
C45         C194   1.538   1_554  S
C45         C140   1.441   1_554  S
C46          C50   1.535       .  S
C46         C193   1.538       .  S
C46         C492   1.537       .  S
C46          H52   1.111       .  S
C47         C339   1.537   1_545  S
C47          H53   1.087       .  S
C47          C48   1.362       .  D
C48         C490   1.537   1_554  S
C48         C144   1.442   1_554  S
C49          H54   1.087       .  S
C49         C198   1.363   1_554  D
C50         C197   1.363       .  D
C50          C88   1.473       .  S
Fe55         O71   2.046       .  S
Fe55         O68   2.087       .  S
Fe55        O357   2.086       .  S
Fe55        O356   2.046       .  S
Fe55         O66   1.957       .  S
Fe56         O63   2.084       .  S
Fe56         O67   2.042       .  S
Fe56        O651   2.041       .  S
Fe56        O664   2.082       .  S
Fe56         O66   1.958       .  S
Fe57         O75   2.087       .  S
Fe57         O62   2.047       .  S
Fe57         O69   2.050       .  S
Fe57         O58   2.085       .  S
Fe57        O954   1.957   1_445  S
O58         C657   1.274   1_455  A
O59        Fe648   2.041   1_455  S
O59          C73   1.266       .  A
O60        Fe351   2.048       .  S
O60          C65   1.268       .  A
O61        Fe351   2.090       .  S
O61         C656   1.273       .  A
O62          C74   1.267       .  A
O63          C76   1.272       .  A
C64          O69   1.268       .  A
C64         O653   1.273   1_455  A
C64         C101   1.481       .  S
C65         O650   1.273       .  A
C65         C108   1.481       .  S
O66        Fe945   1.959       .  S
O67          C70   1.266       .  A
O68          C70   1.273       .  A
C70         C128   1.479       .  S
O71          C76   1.267       .  A
O72        Fe648   2.082   1_455  S
O72         C370   1.272       .  A
C73         O371   1.272       .  A
C73          C91   1.475       .  S
C74         O368   1.273   1_545  A
C74          C81   1.480   1_545  S
O75         C369   1.273   1_545  A
C76         C121   1.477       .  S
C77          C82   1.394       .  A
C77         C374   1.408   1_545  A
C77          H83   1.083       .  S
C78          C79   1.410       .  A
C78         C373   1.407       .  A
C79          C80   1.399       .  A
C79          H84   1.077       .  S
C80         C377   1.404       .  A
C80          H85   1.083       .  S
C81          C82   1.403   1_565  A
C81         C376   1.404       .  A
C82          H86   1.083       .  S
C87          C92   1.401       .  A
C87         C384   1.403   1_545  A
C87          H93   1.083       .  S
C88          C89   1.401       .  A
C88         C383   1.402       .  A
C89          C90   1.391       .  A
C89          H94   1.083       .  S
C90          C91   1.404       .  A
C90          H95   1.083       .  S
C91         C388   1.406       .  A
C92         C387   1.405   1_545  A
C92          H96   1.083       .  S
C97         C102   1.394       .  A
C97         C690   1.403       .  A
C97         H103   1.083       .  S
C98          C99   1.402       .  A
C98         C689   1.403       .  A
C99         C100   1.402       .  A
C99         H104   1.083       .  S
C100        C693   1.408       .  A
C100        H105   1.083       .  S
C101        C102   1.405       .  A
C101        C692   1.408   1_455  A
C102        H106   1.083       .  S
C107        C108   1.404       .  A
C107        C112   1.395       .  A
C107        H113   1.083       .  S
C108        C701   1.404       .  A
C109        C110   1.399       .  A
C109        C700   1.404   1_455  A
C109        H114   1.083       .  S
C110        C703   1.411       .  A
C110        H115   1.077       .  S
C111        C112   1.408       .  A
C111        C702   1.411       .  A
C112        H116   1.083       .  S
C117        C118   1.402       .  A
C117        C122   1.393       .  A
C117        H123   1.083       .  S
C118        C119   1.403       .  A
C119        C120   1.401       .  A
C119        H124   1.083       .  S
C120        C121   1.407       .  A
C120        H125   1.083       .  S
C121        C122   1.405       .  A
C122        H126   1.083       .  S
C127        C128   1.404       .  A
C127        C132   1.399       .  A
C127        H133   1.083       .  S
C128        C129   1.404       .  A
C129        C130   1.393       .  A
C129        H134   1.083       .  S
C130        C131   1.407       .  A
C130        H135   1.083       .  S
C131        C132   1.411       .  A
C132        H136   1.077       .  S
C137        C138   1.205       .  T
C139        C140   1.206       .  T
C141        C142   1.206       .  T
C143        C144   1.207       .  T
C145        C146   1.207       .  T
C147        C148   1.207       .  T
C148        C153   1.442       .  S
C149        C150   1.402       .  A
C149        C294   1.444       .  S
C150        C151   1.403       .  A
C150        H155   1.085       .  S
C151        C291   1.443       .  S
C152        C153   1.403       .  A
C152        H156   1.085       .  S
C153        C154   1.402       .  A
C154        H157   1.085       .  S
C158        C159   1.403       .  A
C158        C163   1.402       .  A
C158        C290   1.442       .  S
C159        C160   1.402       .  A
C159        H164   1.085       .  S
C160        C161   1.402       .  A
C160        C287   1.441       .  S
C161        C162   1.401       .  A
C161        H165   1.085       .  S
C162        C163   1.403       .  A
C162        C286   1.441       .  S
C163        H166   1.085       .  S
C167        C168   1.542       .  S
C167        C173   1.535       .  S
C167        C171   1.538       .  S
C167        C279   1.527       .  S
C168        H175   1.082       .  S
C168        C169   1.364       .  D
C169        C289   1.443       .  S
C170        C174   1.535       .  S
C170        H176   1.111       .  S
C171        H177   1.087       .  S
C171        C172   1.363       .  D
C172        C293   1.445       .  S
C173        H178   1.087       .  S
C174        C266   1.473       .  S
C179        C772   1.542       .  S
C179        C185   1.535       .  S
C179        C183   1.537       .  S
C179        C259   1.525       .  S
C180        C771   1.542       .  S
C180        H187   1.082       .  S
C180        C181   1.364       .  D
C181        C626   1.539   1_455  S
C181        C285   1.442       .  S
C182        C625   1.537   1_556  S
C182        C186   1.535       .  S
C182        H188   1.111       .  S
C183        H189   1.087       .  S
C183        C184   1.363       .  D
C184        C295   1.445       .  S
C185        H190   1.087       .  S
C186        C246   1.475       .  S
C191        C192   1.543       .  S
C191        C197   1.534       .  S
C191        C491   1.538       .  S
C191        C226   1.523       .  S
C192        H199   1.082       .  S
C192        C193   1.364       .  D
C193        C288   1.442       .  S
C194        C198   1.536       .  S
C194        C344   1.537   1_556  S
C194        H200   1.111       .  S
C195        C487   1.537   1_545  S
C195        H201   1.087       .  S
C195        C196   1.362       .  D
C196        C342   1.538   1_545  S
C196        C292   1.444       .  S
C197        H202   1.087       .  S
C198        C236   1.473       .  S
Fe203       O219   2.050       .  S
Fe203       O505   2.088       .  S
Fe203       O216   2.087       .  S
Fe203       O504   2.049       .  S
Fe203       O214   1.962       .  S
Fe204       O799   2.043       .  S
Fe204       O211   2.080       .  S
Fe204       O215   2.046       .  S
Fe204       O812   2.078       .  S
Fe204       O214   1.962       .  S
Fe205       O223   2.085       .  S
Fe205       O210   2.049       .  S
Fe205       O217   2.048       .  S
Fe205       O206   2.083       .  S
Fe205      O1102   1.962       .  S
O206        C805   1.273   1_455  A
O207       Fe796   2.043   1_455  S
O207        C221   1.266       .  A
O208       Fe499   2.048       .  S
O208        C213   1.268       .  A
O209       Fe499   2.086       .  S
O209        C804   1.272       .  A
O210        C222   1.267       .  A
O211        C224   1.271       .  A
C212        O801   1.272   1_455  A
C212        O217   1.267       .  A
C212        C249   1.479       .  S
C213        O798   1.273       .  A
C213        C256   1.479       .  S
O214      Fe1093   1.963       .  S
O215        C218   1.267       .  A
O216        C218   1.273       .  A
C218        C276   1.482       .  S
O219        C224   1.268       .  A
O220       Fe796   2.078   1_455  S
O220        C518   1.272       .  A
C221        O519   1.272       .  A
C221        C239   1.476       .  S
C222        O516   1.272   1_545  A
C222        C229   1.479       .  S
O223        C517   1.272   1_545  A
C224        C269   1.478       .  S
C225        C522   1.408   1_545  A
C225        C230   1.394       .  A
C225        H231   1.083       .  S
C226        C521   1.408       .  A
C226        C227   1.410       .  A
C227        C228   1.398       .  A
C227        H232   1.077       .  S
C228        C525   1.404       .  A
C228        H233   1.083       .  S
C229        C524   1.404   1_545  A
C229        C230   1.403       .  A
C230        H234   1.083       .  S
C235        C532   1.402   1_545  A
C235        C240   1.402       .  A
C235        H241   1.083       .  S
C236        C531   1.402       .  A
C236        C237   1.401       .  A
C237        C238   1.391       .  A
C237        H242   1.084       .  S
C238        C239   1.405       .  A
C238        H243   1.083       .  S
C239        C536   1.407       .  A
C240        C535   1.407   1_545  A
C240        H244   1.083       .  S
C245        C838   1.401       .  A
C245        C250   1.393       .  A
C245        H251   1.083       .  S
C246        C837   1.401       .  A
C246        C247   1.402       .  A
C247        C248   1.401       .  A
C247        H252   1.083       .  S
C248        C841   1.408       .  A
C248        H253   1.083       .  S
C249        C840   1.408   1_455  A
C249        C250   1.406       .  A
C250        H254   1.083       .  S
C255        C256   1.403       .  A
C255        C260   1.393       .  A
C255        H261   1.083       .  S
C256        C849   1.404       .  A
C257        C848   1.404   1_455  A
C257        C258   1.400       .  A
C257        H262   1.083       .  S
C258        C851   1.411       .  A
C258        H263   1.077       .  S
C259        C850   1.411       .  A
C259        C260   1.407       .  A
C260        H264   1.083       .  S
C265        C266   1.401       .  A
C265        C270   1.394       .  A
C265        H271   1.083       .  S
C266        C267   1.401       .  A
C267        C268   1.400       .  A
C267        H272   1.083       .  S
C268        C269   1.407       .  A
C268        H273   1.083       .  S
C269        C270   1.405       .  A
C270        H274   1.083       .  S
C275        C276   1.404       .  A
C275        C280   1.400       .  A
C275        H281   1.083       .  S
C276        C277   1.405       .  A
C277        C278   1.395       .  A
C277        H282   1.083       .  S
C278        C279   1.408       .  A
C278        H283   1.083       .  S
C279        C280   1.411       .  A
C280        H284   1.077       .  S
C285        C286   1.206       .  T
C287        C288   1.206       .  T
C289        C290   1.207       .  T
C291        C292   1.208       .  T
C293        C294   1.208       .  T
C295        C296   1.209       .  T
C297        C298   1.402       .  A
C297        C450   1.404       .  A
C297        C442   1.444       .  S
C298        C299   1.403       .  A
C298        H303   1.085       .  S
C299        C448   1.401       .  A
C299        C439   1.442       .  S
C300        C447   1.402       .  A
C300        C301   1.403       .  A
C300        H304   1.085       .  S
C301        C302   1.404       .  A
C301        C592   1.445       .  S
C302        C445   1.404       .  A
C302        H305   1.084       .  S
C306        C307   1.404       .  A
C306        C311   1.401       .  A
C306        C438   1.442       .  S
C307        C308   1.402       .  A
C307        H312   1.085       .  S
C308        C309   1.402       .  A
C308        C435   1.442       .  S
C309        C310   1.400       .  A
C309        H313   1.085       .  S
C310        C311   1.403       .  A
C310        C434   1.441       .  S
C311        H314   1.085       .  S
C315        C316   1.541       .  S
C315        C321   1.536       .  S
C315        C319   1.537       .  S
C315        C427   1.524       .  S
C316        H323   1.082       .  S
C316        C317   1.364       .  D
C317        C466   1.540   1_554  S
C317        C437   1.443   1_554  S
C318        C465   1.541       .  S
C318        C322   1.537       .  S
C318        C468   1.540       .  S
C318        H324   1.111       .  S
C319        H325   1.087       .  S
C319        C320   1.363       .  D
C320        C466   1.540   1_554  S
C320        C441   1.445   1_554  S
C321        H326   1.087       .  S
C321        C470   1.363   1_554  D
C322        C469   1.365       .  D
C322        C414   1.479       .  S
C327        C920   1.542       .  S
C327        C333   1.534       .  S
C327        C331   1.538       .  S
C327        C407   1.525       .  S
C328        C919   1.542       .  S
C328        H335   1.082       .  S
C328        C329   1.363       .  D
C329       C1070   1.539   1_454  S
C329        C433   1.442   1_554  S
C330       C1069   1.539       .  S
C330        C334   1.536       .  S
C330        C480   1.539       .  S
C330        H336   1.111       .  S
C331        H337   1.087       .  S
C331        C332   1.363       .  D
C332        C478   1.538   1_554  S
C332        C443   1.444   1_554  S
C333        H338   1.087       .  S
C333        C482   1.364   1_554  D
C334        C481   1.363       .  D
C334        C394   1.474       .  S
C339        C340   1.543       .  S
C339        C345   1.535       .  S
C339        C374   1.525       .  S
C340        H347   1.082       .  S
C340        C341   1.365       .  D
C341        C490   1.538   1_564  S
C341        C436   1.443   1_554  S
C342        C489   1.538       .  S
C342        C346   1.537       .  S
C342        H348   1.111   1_565  S
C343        H349   1.087       .  S
C343        C344   1.361       .  D
C344        C440   1.442   1_554  S
C345        H350   1.087       .  S
C345        C494   1.363   1_554  D
C346        C493   1.364       .  D
C346        C384   1.475       .  S
Fe351       O367   2.048   1_545  S
Fe351       O364   2.091   1_545  S
Fe351       O362   1.955   1_545  S
Fe352       O947   2.038       .  S
Fe352       O359   2.089       .  S
Fe352       O363   2.038       .  S
Fe352       O960   2.086       .  S
Fe352       O362   1.956       .  S
Fe353       O371   2.084       .  S
Fe353       O358   2.043       .  S
Fe353       O365   2.045       .  S
Fe353       O354   2.083       .  S
Fe353       O658   1.959   1_455  S
O354        C953   1.273   1_455  A
O355       Fe944   2.038   1_455  S
O355        C369   1.266       .  A
O356        C361   1.267       .  A
O357        C952   1.273       .  A
O358        C370   1.267       .  A
O359        C372   1.273       .  A
C360        O949   1.273   1_455  A
C360        O365   1.267       .  A
C360        C397   1.478       .  S
C361        O946   1.273       .  A
C361        C404   1.479       .  S
O362       Fe649   1.957   1_565  S
O363        C366   1.266       .  A
O364        C366   1.274       .  A
C366        C424   1.479       .  S
O367        C372   1.268       .  A
O368       Fe944   2.086   1_455  S
C369        C387   1.473       .  S
C370        C377   1.477       .  S
C372        C417   1.480       .  S
C373        C378   1.391       .  A
C373        H379   1.083       .  S
C374        C375   1.410       .  A
C375        C376   1.399       .  A
C375        H380   1.077       .  S
C376        H381   1.083       .  S
C377        C378   1.403       .  A
C378        H382   1.083       .  S
C383        C388   1.401       .  A
C383        H389   1.083       .  S
C384        C385   1.402       .  A
C385        C386   1.391       .  A
C385        H390   1.083       .  S
C386        C387   1.404       .  A
C386        H391   1.083       .  S
C388        H392   1.083       .  S
C393        C986   1.402       .  A
C393        C398   1.393       .  A
C393        H399   1.083       .  S
C394        C985   1.401       .  A
C394        C395   1.402       .  A
C395        C396   1.401       .  A
C395        H400   1.083       .  S
C396        C989   1.407       .  A
C396        H401   1.083       .  S
C397        C988   1.407   1_455  A
C397        C398   1.406       .  A
C398        H402   1.083       .  S
C403        C404   1.403       .  A
C403        C408   1.393       .  A
C403        H409   1.083       .  S
C404        C997   1.404       .  A
C405        C996   1.404       .  A
C405        C406   1.399       .  A
C405        H410   1.083       .  S
C406        C999   1.411       .  A
C406        H411   1.077       .  S
C407        C998   1.411       .  A
C407        C408   1.407       .  A
C408        H412   1.083       .  S
C413        C414   1.402       .  A
C413        C418   1.393       .  A
C413        H419   1.083       .  S
C414        C415   1.404       .  A
C415        C416   1.403       .  A
C415        H420   1.083       .  S
C416        C417   1.408       .  A
C416        H421   1.083       .  S
C417        C418   1.405       .  A
C418        H422   1.083       .  S
C423        C424   1.403       .  A
C423        C428   1.400       .  A
C423        H429   1.083       .  S
C424        C425   1.404       .  A
C425        C426   1.392       .  A
C425        H430   1.083       .  S
C426        C427   1.407       .  A
C426        H431   1.083       .  S
C427        C428   1.411       .  A
C428        H432   1.077       .  S
C433        C434   1.206       .  T
C435        C436   1.207       .  T
C437        C438   1.207       .  T
C439        C440   1.207       .  T
C441        C442   1.209       .  T
C443        C444   1.208       .  T
C444        C449   1.443       .  S
C445        C446   1.402       .  A
C445        C590   1.446       .  S
C446        C447   1.403       .  A
C446        H451   1.085       .  S
C447        C587   1.443       .  S
C448        C449   1.403       .  A
C448        H452   1.085       .  S
C449        C450   1.403       .  A
C450        H453   1.084       .  S
C454        C455   1.404       .  A
C454        C459   1.402       .  A
C454        C586   1.444       .  S
C455        C456   1.402       .  A
C455        H460   1.085       .  S
C456        C457   1.403       .  A
C456        C583   1.442       .  S
C457        C458   1.401       .  A
C457        H461   1.085       .  S
C458        C459   1.403       .  A
C458        C582   1.442       .  S
C459        H462   1.085       .  S
C463        C464   1.542       .  S
C463        C469   1.536       .  S
C463        C467   1.538       .  S
C463        C575   1.527       .  S
C464        H471   1.082       .  S
C464        C465   1.363       .  D
C465        C585   1.445       .  S
C466        C470   1.538       .  S
C466        H472   1.111       .  S
C467        H473   1.087       .  S
C467        C468   1.364       .  D
C468        C589   1.447       .  S
C469        H474   1.087       .  S
C470        C562   1.478       .  S
C475       C1068   1.542       .  S
C475        C481   1.534       .  S
C475        C479   1.539       .  S
C475        C555   1.526       .  S
C476       C1067   1.542       .  S
C476        H483   1.082       .  S
C476        C477   1.363       .  D
C477        C922   1.539   1_455  S
C477        C581   1.443       .  S
C478        C921   1.539   1_556  S
C478        C482   1.537       .  S
C478        H484   1.111       .  S
C479        H485   1.087       .  S
C479        C480   1.363       .  D
C480        C591   1.446       .  S
C481        H486   1.087       .  S
C482        C542   1.476       .  S
C487        C488   1.543       .  S
C487        C493   1.534       .  S
C487        C522   1.525       .  S
C488        H495   1.082       .  S
C488        C489   1.365       .  D
C489        C584   1.443       .  S
C490        C494   1.535   1_545  S
C490        H496   1.111       .  S
C491        H497   1.087       .  S
C491        C492   1.363       .  D
C492        C588   1.443       .  S
C493        H498   1.087       .  S
C494        C532   1.473       .  S
Fe499       O515   2.052   1_545  S
Fe499       O512   2.089   1_545  S
Fe499       O510   1.960       .  S
Fe500      O1095   2.042       .  S
Fe500       O507   2.085       .  S
Fe500       O511   2.044       .  S
Fe500      O1108   2.082       .  S
Fe500       O510   1.959   1_565  S
Fe501       O519   2.083       .  S
Fe501       O506   2.045       .  S
Fe501       O513   2.045       .  S
Fe501       O502   2.081       .  S
Fe501       O806   1.963   1_455  S
O502       C1101   1.272   1_455  A
O503      Fe1092   2.042   1_455  S
O503        C517   1.266       .  A
O504        C509   1.268       .  A
O505       C1100   1.273       .  A
O506        C518   1.267       .  A
O507        C520   1.272       .  A
C508       O1097   1.273   1_455  A
C508        O513   1.267       .  A
C508        C545   1.478       .  S
C509       O1094   1.272       .  A
C509        C552   1.480       .  S
O510       Fe797   1.962       .  S
O511        C514   1.266       .  A
O512        C514   1.274       .  A
C514        C572   1.482       .  S
O515        C520   1.268       .  A
O516      Fe1092   2.082   1_455  S
C517        C535   1.477       .  S
C518        C525   1.477       .  S
C520        C565   1.480       .  S
C521        C526   1.393       .  A
C521        H527   1.083       .  S
C522        C523   1.410       .  A
C523        C524   1.399       .  A
C523        H528   1.077       .  S
C524        H529   1.083       .  S
C525        C526   1.403       .  A
C526        H530   1.083       .  S
C531        C536   1.401       .  A
C531        H537   1.083       .  S
C532        C533   1.400       .  A
C533        C534   1.391       .  A
C533        H538   1.084       .  S
C534        C535   1.405       .  A
C534        H539   1.083       .  S
C536        H540   1.083       .  S
C541       C1134   1.402       .  A
C541        C546   1.393       .  A
C541        H547   1.083       .  S
C542       C1133   1.402       .  A
C542        C543   1.403       .  A
C543        C544   1.402       .  A
C543        H548   1.083       .  S
C544       C1137   1.407       .  A
C544        H549   1.083       .  S
C545       C1136   1.407   1_455  A
C545        C546   1.405       .  A
C546        H550   1.083       .  S
C551        C552   1.403       .  A
C551        C556   1.394       .  A
C551        H557   1.083       .  S
C552       C1145   1.404       .  A
C553       C1144   1.404   1_455  A
C553        C554   1.399       .  A
C553        H558   1.083       .  S
C554       C1147   1.411       .  A
C554        H559   1.077       .  S
C555       C1146   1.411       .  A
C555        C556   1.408       .  A
C556        H560   1.083       .  S
C561        C562   1.403       .  A
C561        C566   1.394       .  A
C561        H567   1.083       .  S
C562        C563   1.402       .  A
C563        C564   1.402       .  A
C563        H568   1.083       .  S
C564        C565   1.407       .  A
C564        H569   1.083       .  S
C565        C566   1.405       .  A
C566        H570   1.083       .  S
C571        C572   1.404       .  A
C571        C576   1.401       .  A
C571        H577   1.083       .  S
C572        C573   1.405       .  A
C573        C574   1.394       .  A
C573        H578   1.083       .  S
C574        C575   1.407       .  A
C574        H579   1.083       .  S
C575        C576   1.412       .  A
C576        H580   1.077       .  S
C581        C582   1.207       .  T
C583        C584   1.207       .  T
C585        C586   1.208       .  T
C587        C588   1.207       .  T
C589        C590   1.209       .  T
C591        C592   1.209       .  T
C593        C594   1.402       .  A
C593        C746   1.403       .  A
C593        C738   1.442       .  S
C594        C595   1.402       .  A
C594        H599   1.085       .  S
C595        C744   1.401       .  A
C595        C735   1.442       .  S
C596        C743   1.402       .  A
C596        C597   1.403       .  A
C596        H600   1.085       .  S
C597        C598   1.403       .  A
C597        C888   1.445       .  S
C598        C741   1.404       .  A
C598        H601   1.084       .  S
C602        C603   1.403       .  A
C602        C607   1.401       .  A
C602        C734   1.441       .  S
C603        C604   1.401       .  A
C603        H608   1.085       .  S
C604        C605   1.402       .  A
C604        C731   1.440       .  S
C605        C606   1.400       .  A
C605        H609   1.085       .  S
C606        C607   1.402       .  A
C606        C730   1.440       .  S
C607        H610   1.085       .  S
C611        C612   1.542       .  S
C611        C617   1.536       .  S
C611        C615   1.538       .  S
C611        C723   1.524       .  S
C612        H619   1.082       .  S
C612        C613   1.363       .  D
C613        C762   1.538   1_554  S
C613        C733   1.442   1_554  S
C614        C761   1.539       .  S
C614        C618   1.537       .  S
C614        C764   1.539       .  S
C614        H620   1.111       .  S
C615        H621   1.087       .  S
C615        C616   1.363       .  D
C616        C762   1.537   1_554  S
C616        C737   1.443   1_554  S
C617        H622   1.087       .  S
C617        C766   1.363   1_554  D
C618        C765   1.364       .  D
C618        C710   1.476       .  S
C623        C629   1.535       .  S
C623        C627   1.539   1_455  S
C623        C703   1.526       .  S
C624        H631   1.082       .  S
C624        C625   1.363       .  D
C625        C729   1.440   1_554  S
C626        C630   1.538   1_655  S
C626        C776   1.540       .  S
C626        H632   1.111       .  S
C627        H633   1.087       .  S
C627        C628   1.363       .  D
C628        C774   1.537   1_554  S
C628        C739   1.443   1_554  S
C629        H634   1.087       .  S
C629        C778   1.364   1_554  D
C630        C777   1.363       .  D
C630        C690   1.478       .  S
C635        C636   1.542       .  S
C635        C641   1.534       .  S
C635        C935   1.537       .  S
C635        C670   1.522       .  S
C636        H643   1.082       .  S
C636        C637   1.365       .  D
C637        C786   1.538   1_554  S
C637        C732   1.441   1_554  S
C638        C785   1.538       .  S
C638        C642   1.535       .  S
C638       C1084   1.537       .  S
C638        H644   1.111       .  S
C639        C931   1.537   1_545  S
C639        H645   1.087       .  S
C639        C640   1.362       .  D
C640       C1082   1.537   1_554  S
C640        C736   1.442   1_554  S
C641        H646   1.087       .  S
C641        C790   1.363   1_554  D
C642        C789   1.363       .  D
C642        C680   1.473       .  S
Fe647       O663   2.046       .  S
Fe647       O949   2.086       .  S
Fe647       O660   2.087       .  S
Fe647       O948   2.046       .  S
Fe647       O658   1.957       .  S
Fe648       O655   2.084       .  S
Fe648       O659   2.042       .  S
Fe648       O658   1.958       .  S
Fe649       O667   2.087       .  S
Fe649       O654   2.047       .  S
Fe649       O661   2.050       .  S
Fe649       O650   2.085       .  S
O651        C665   1.266       .  A
O652       Fe943   2.048       .  S
O652        C657   1.268       .  A
O653       Fe943   2.090       .  S
O654        C666   1.267       .  A
O655        C668   1.272       .  A
C656        O661   1.268       .  A
C656        C693   1.481       .  S
C657        C700   1.481       .  S
O659        C662   1.266       .  A
O660        C662   1.273       .  A
C662        C720   1.479       .  S
O663        C668   1.267       .  A
O664        C962   1.272       .  A
C665        O963   1.272       .  A
C665        C683   1.475       .  S
C666        O960   1.273   1_545  A
C666        C673   1.480   1_545  S
O667        C961   1.273   1_545  A
C668        C713   1.477       .  S
C669        C966   1.408   1_545  A
C669        C674   1.394       .  A
C669        H675   1.083       .  S
C670        C965   1.407       .  A
C670        C671   1.410       .  A
C671        C672   1.399       .  A
C671        H676   1.077       .  S
C672        C969   1.404       .  A
C672        H677   1.083       .  S
C673        C968   1.404       .  A
C673        C674   1.403   1_565  A
C674        H678   1.083       .  S
C679        C976   1.403   1_545  A
C679        C684   1.401       .  A
C679        H685   1.083       .  S
C680        C975   1.402       .  A
C680        C681   1.401       .  A
C681        C682   1.391       .  A
C681        H686   1.083       .  S
C682        C683   1.404       .  A
C682        H687   1.083       .  S
C683        C980   1.406       .  A
C684        C979   1.405   1_545  A
C684        H688   1.083       .  S
C689        C694   1.394       .  A
C689        H695   1.083       .  S
C690        C691   1.402   1_455  A
C691        C692   1.402       .  A
C691        H696   1.083       .  S
C692        H697   1.083       .  S
C693        C694   1.405       .  A
C694        H698   1.083       .  S
C699        C700   1.404       .  A
C699        C704   1.395       .  A
C699        H705   1.083       .  S
C701        C702   1.399       .  A
C701        H706   1.083       .  S
C702        H707   1.077       .  S
C703        C704   1.408   1_455  A
C704        H708   1.083       .  S
C709        C710   1.402       .  A
C709        C714   1.393       .  A
C709        H715   1.083       .  S
C710        C711   1.403       .  A
C711        C712   1.401       .  A
C711        H716   1.083       .  S
C712        C713   1.407       .  A
C712        H717   1.083       .  S
C713        C714   1.405       .  A
C714        H718   1.083       .  S
C719        C720   1.404       .  A
C719        C724   1.399       .  A
C719        H725   1.083       .  S
C720        C721   1.404       .  A
C721        C722   1.393       .  A
C721        H726   1.083       .  S
C722        C723   1.407       .  A
C722        H727   1.083       .  S
C723        C724   1.411       .  A
C724        H728   1.077       .  S
C729        C730   1.205       .  T
C731        C732   1.206       .  T
C733        C734   1.206       .  T
C735        C736   1.207       .  T
C737        C738   1.207       .  T
C739        C740   1.207       .  T
C740        C745   1.442       .  S
C741        C742   1.402       .  A
C741        C886   1.444       .  S
C742        C743   1.403       .  A
C742        H747   1.085       .  S
C743        C883   1.443       .  S
C744        C745   1.403       .  A
C744        H748   1.085       .  S
C745        C746   1.402       .  A
C746        H749   1.085       .  S
C750        C751   1.403       .  A
C750        C755   1.402       .  A
C750        C882   1.442       .  S
C751        C752   1.402       .  A
C751        H756   1.085       .  S
C752        C753   1.402       .  A
C752        C879   1.441       .  S
C753        C754   1.401       .  A
C753        H757   1.085       .  S
C754        C755   1.403       .  A
C754        C878   1.441       .  S
C755        H758   1.085       .  S
C759        C760   1.542       .  S
C759        C765   1.535       .  S
C759        C763   1.538       .  S
C759        C871   1.527       .  S
C760        H767   1.082       .  S
C760        C761   1.364       .  D
C761        C881   1.443       .  S
C762        C766   1.535       .  S
C762        H768   1.111       .  S
C763        H769   1.087       .  S
C763        C764   1.363       .  D
C764        C885   1.445       .  S
C765        H770   1.087       .  S
C766        C858   1.473       .  S
C771        C777   1.535       .  S
C771        C775   1.537   1_455  S
C771        C851   1.525       .  S
C772        H779   1.082       .  S
C772        C773   1.364       .  D
C773        C877   1.442       .  S
C774        C778   1.535   1_655  S
C774        H780   1.111       .  S
C775        H781   1.087       .  S
C775        C776   1.363       .  D
C776        C887   1.445       .  S
C777        H782   1.087       .  S
C778        C838   1.474       .  S
C783        C784   1.543       .  S
C783        C789   1.534       .  S
C783       C1083   1.538       .  S
C783        C818   1.523       .  S
C784        H791   1.082       .  S
C784        C785   1.364       .  D
C785        C880   1.442       .  S
C786        C790   1.536       .  S
C786        C936   1.537   1_556  S
C786        H792   1.111       .  S
C787       C1079   1.537   1_545  S
C787        H793   1.087       .  S
C787        C788   1.362       .  D
C788        C934   1.538   1_545  S
C788        C884   1.444       .  S
C789        H794   1.087       .  S
C790        C828   1.473       .  S
Fe795       O811   2.050       .  S
Fe795      O1097   2.088       .  S
Fe795       O808   2.087       .  S
Fe795      O1096   2.049       .  S
Fe795       O806   1.962       .  S
Fe796       O803   2.080       .  S
Fe796       O807   2.046       .  S
Fe796       O806   1.962       .  S
Fe797       O815   2.085       .  S
Fe797       O802   2.049       .  S
Fe797       O809   2.048       .  S
Fe797       O798   2.083       .  S
O799        C813   1.266       .  A
O800      Fe1091   2.048       .  S
O800        C805   1.268       .  A
O801      Fe1091   2.086       .  S
O802        C814   1.267       .  A
O803        C816   1.271       .  A
C804        O809   1.267       .  A
C804        C841   1.479       .  S
C805        C848   1.479       .  S
O807        C810   1.267       .  A
O808        C810   1.273       .  A
C810        C868   1.482       .  S
O811        C816   1.268       .  A
O812       C1110   1.272       .  A
C813       O1111   1.272       .  A
C813        C831   1.476       .  S
C814       O1108   1.272   1_545  A
C814        C821   1.479       .  S
O815       C1109   1.272   1_545  A
C816        C861   1.478       .  S
C817       C1114   1.408   1_545  A
C817        C822   1.394       .  A
C817        H823   1.083       .  S
C818       C1113   1.408       .  A
C818        C819   1.410       .  A
C819        C820   1.398       .  A
C819        H824   1.077       .  S
C820       C1117   1.404       .  A
C820        H825   1.083       .  S
C821       C1116   1.404   1_545  A
C821        C822   1.403       .  A
C822        H826   1.083       .  S
C827       C1124   1.402   1_545  A
C827        C832   1.402       .  A
C827        H833   1.083       .  S
C828       C1123   1.402       .  A
C828        C829   1.401       .  A
C829        C830   1.391       .  A
C829        H834   1.084       .  S
C830        C831   1.405       .  A
C830        H835   1.083       .  S
C831       C1128   1.407       .  A
C832       C1127   1.407   1_545  A
C832        H836   1.083       .  S
C837        C842   1.393       .  A
C837        H843   1.083       .  S
C838        C839   1.402   1_455  A
C839        C840   1.401       .  A
C839        H844   1.083       .  S
C840        H845   1.083       .  S
C841        C842   1.406       .  A
C842        H846   1.083       .  S
C847        C848   1.403       .  A
C847        C852   1.393       .  A
C847        H853   1.083       .  S
C849        C850   1.400       .  A
C849        H854   1.083       .  S
C850        H855   1.077       .  S
C851        C852   1.407   1_455  A
C852        H856   1.083       .  S
C857        C858   1.401       .  A
C857        C862   1.394       .  A
C857        H863   1.083       .  S
C858        C859   1.401       .  A
C859        C860   1.400       .  A
C859        H864   1.083       .  S
C860        C861   1.407       .  A
C860        H865   1.083       .  S
C861        C862   1.405       .  A
C862        H866   1.083       .  S
C867        C868   1.404       .  A
C867        C872   1.400       .  A
C867        H873   1.083       .  S
C868        C869   1.405       .  A
C869        C870   1.395       .  A
C869        H874   1.083       .  S
C870        C871   1.408       .  A
C870        H875   1.083       .  S
C871        C872   1.411       .  A
C872        H876   1.077       .  S
C877        C878   1.206       .  T
C879        C880   1.206       .  T
C881        C882   1.207       .  T
C883        C884   1.207       .  T
C885        C886   1.208       .  T
C887        C888   1.208       .  T
C889        C890   1.402       .  A
C889       C1042   1.404       .  A
C889       C1034   1.444       .  S
C890        C891   1.403       .  A
C890        H895   1.085       .  S
C891       C1040   1.401       .  A
C891       C1031   1.442       .  S
C892       C1039   1.402       .  A
C892        C893   1.403       .  A
C892        H896   1.085       .  S
C893        C894   1.404       .  A
C893       C1184   1.445       .  S
C894       C1037   1.404       .  A
C894        H897   1.084       .  S
C898        C899   1.404       .  A
C898        C903   1.401       .  A
C898       C1030   1.442       .  S
C899        C900   1.402       .  A
C899        H904   1.085       .  S
C900        C901   1.402       .  A
C900       C1027   1.442       .  S
C901        C902   1.400       .  A
C901        H905   1.085       .  S
C902        C903   1.403       .  A
C902       C1026   1.441       .  S
C903        H906   1.085       .  S
C907        C908   1.541       .  S
C907        C913   1.536       .  S
C907        C911   1.537       .  S
C907       C1019   1.524       .  S
C908        H915   1.082       .  S
C908        C909   1.364       .  D
C909       C1058   1.540   1_554  S
C909       C1029   1.443   1_554  S
C910       C1057   1.541       .  S
C910        C914   1.537       .  S
C910       C1060   1.540       .  S
C910        H916   1.111       .  S
C911        H917   1.087       .  S
C911        C912   1.363       .  D
C912       C1058   1.540   1_554  S
C912       C1033   1.445   1_554  S
C913        H918   1.087       .  S
C913       C1062   1.363   1_554  D
C914       C1061   1.365       .  D
C914       C1006   1.479       .  S
C919        C925   1.534       .  S
C919        C923   1.538   1_455  S
C919        C999   1.525       .  S
C920        H927   1.082       .  S
C920        C921   1.363       .  D
C921       C1025   1.442   1_554  S
C922        C926   1.536   1_655  S
C922       C1072   1.539       .  S
C922        H928   1.111       .  S
C923        H929   1.087       .  S
C923        C924   1.363       .  D
C924       C1070   1.538   1_554  S
C924       C1035   1.444   1_554  S
C925        H930   1.087       .  S
C925       C1074   1.364   1_554  D
C926       C1073   1.363       .  D
C926        C986   1.474       .  S
C931        C932   1.543       .  S
C931        C937   1.535       .  S
C931        C966   1.525       .  S
C932        H939   1.082       .  S
C932        C933   1.365       .  D
C933       C1082   1.538   1_564  S
C933       C1028   1.443   1_554  S
C934       C1081   1.538       .  S
C934        C938   1.537       .  S
C934        H940   1.111   1_565  S
C935        H941   1.087       .  S
C935        C936   1.361       .  D
C936       C1032   1.442   1_554  S
C937        H942   1.087       .  S
C937       C1086   1.363   1_554  D
C938       C1085   1.364       .  D
C938        C976   1.475       .  S
Fe943       O959   2.048   1_545  S
Fe943       O956   2.091   1_545  S
Fe943       O954   1.955   1_545  S
Fe944       O951   2.089       .  S
Fe944       O955   2.038       .  S
Fe944       O954   1.956       .  S
Fe945       O963   2.084       .  S
Fe945       O950   2.043       .  S
Fe945       O957   2.045       .  S
Fe945       O946   2.083       .  S
O947        C961   1.266       .  A
O948        C953   1.267       .  A
O950        C962   1.267       .  A
O951        C964   1.273       .  A
C952        O957   1.267       .  A
C952        C989   1.478       .  S
C953        C996   1.479   1_655  S
O955        C958   1.266       .  A
O956        C958   1.274       .  A
C958       C1016   1.479       .  S
O959        C964   1.268       .  A
C961        C979   1.473       .  S
C962        C969   1.477       .  S
C964       C1009   1.480       .  S
C965        C970   1.391       .  A
C965        H971   1.083       .  S
C966        C967   1.410       .  A
C967        C968   1.399       .  A
C967        H972   1.077       .  S
C968        H973   1.083       .  S
C969        C970   1.403       .  A
C970        H974   1.083       .  S
C975        C980   1.401       .  A
C975        H981   1.083       .  S
C976        C977   1.402       .  A
C977        C978   1.391       .  A
C977        H982   1.083       .  S
C978        C979   1.404       .  A
C978        H983   1.083       .  S
C980        H984   1.083       .  S
C985        C990   1.393       .  A
C985        H991   1.083       .  S
C986        C987   1.402   1_455  A
C987        C988   1.401       .  A
C987        H992   1.083       .  S
C988        H993   1.083       .  S
C989        C990   1.406       .  A
C990        H994   1.083       .  S
C995        C996   1.403   1_655  A
C995       C1000   1.393       .  A
C995       H1001   1.083       .  S
C997        C998   1.399       .  A
C997       H1002   1.083       .  S
C998       H1003   1.077       .  S
C999       C1000   1.407   1_455  A
C1000      H1004   1.083       .  S
C1005      C1006   1.402       .  A
C1005      C1010   1.393       .  A
C1005      H1011   1.083       .  S
C1006      C1007   1.404       .  A
C1007      C1008   1.403       .  A
C1007      H1012   1.083       .  S
C1008      C1009   1.408       .  A
C1008      H1013   1.083       .  S
C1009      C1010   1.405       .  A
C1010      H1014   1.083       .  S
C1015      C1016   1.403       .  A
C1015      C1020   1.400       .  A
C1015      H1021   1.083       .  S
C1016      C1017   1.404       .  A
C1017      C1018   1.392       .  A
C1017      H1022   1.083       .  S
C1018      C1019   1.407       .  A
C1018      H1023   1.083       .  S
C1019      C1020   1.411       .  A
C1020      H1024   1.077       .  S
C1025      C1026   1.206       .  T
C1027      C1028   1.207       .  T
C1029      C1030   1.207       .  T
C1031      C1032   1.207       .  T
C1033      C1034   1.209       .  T
C1035      C1036   1.208       .  T
C1036      C1041   1.443       .  S
C1037      C1038   1.402       .  A
C1037      C1182   1.446       .  S
C1038      C1039   1.403       .  A
C1038      H1043   1.085       .  S
C1039      C1179   1.443       .  S
C1040      C1041   1.403       .  A
C1040      H1044   1.085       .  S
C1041      C1042   1.403       .  A
C1042      H1045   1.084       .  S
C1046      C1047   1.404       .  A
C1046      C1051   1.402       .  A
C1046      C1178   1.444       .  S
C1047      C1048   1.403       .  A
C1047      H1052   1.085       .  S
C1048      C1049   1.403       .  A
C1048      C1175   1.442       .  S
C1049      C1050   1.401       .  A
C1049      H1053   1.085       .  S
C1050      C1051   1.403       .  A
C1050      C1174   1.442       .  S
C1051      H1054   1.085       .  S
C1055      C1056   1.542       .  S
C1055      C1061   1.536       .  S
C1055      C1059   1.538       .  S
C1055      C1167   1.527       .  S
C1056      H1063   1.082       .  S
C1056      C1057   1.363       .  D
C1057      C1177   1.445       .  S
C1058      C1062   1.538       .  S
C1058      H1064   1.111       .  S
C1059      H1065   1.087       .  S
C1059      C1060   1.364       .  D
C1060      C1181   1.447       .  S
C1061      H1066   1.087       .  S
C1062      C1154   1.478       .  S
C1067      C1073   1.534       .  S
C1067      C1071   1.539   1_455  S
C1067      C1147   1.526       .  S
C1068      H1075   1.082       .  S
C1068      C1069   1.363       .  D
C1069      C1173   1.443       .  S
C1070      C1074   1.537   1_655  S
C1070      H1076   1.111       .  S
C1071      H1077   1.087       .  S
C1071      C1072   1.363       .  D
C1072      C1183   1.446       .  S
C1073      H1078   1.087       .  S
C1074      C1134   1.476       .  S
C1079      C1080   1.543       .  S
C1079      C1085   1.534       .  S
C1079      C1114   1.525       .  S
C1080      H1087   1.082       .  S
C1080      C1081   1.365       .  D
C1081      C1176   1.443       .  S
C1082      C1086   1.535   1_545  S
C1082      H1088   1.111       .  S
C1083      H1089   1.087       .  S
C1083      C1084   1.363       .  D
C1084      C1180   1.443       .  S
C1085      H1090   1.087       .  S
C1086      C1124   1.473       .  S
Fe1091     O1107   2.052   1_545  S
Fe1091     O1104   2.089   1_545  S
Fe1091     O1102   1.960   1_655  S
Fe1092     O1099   2.085       .  S
Fe1092     O1103   2.043       .  S
Fe1092     O1102   1.959   1_665  S
Fe1093     O1111   2.083       .  S
Fe1093     O1098   2.045       .  S
Fe1093     O1105   2.045       .  S
Fe1093     O1094   2.081       .  S
O1095      C1109   1.266       .  A
O1096      C1101   1.268       .  A
O1098      C1110   1.267       .  A
O1099      C1112   1.272       .  A
C1100      O1105   1.267       .  A
C1100      C1137   1.478       .  S
C1101      C1144   1.480       .  S
O1103      C1106   1.266       .  A
O1104      C1106   1.274       .  A
C1106      C1164   1.482       .  S
O1107      C1112   1.268       .  A
C1109      C1127   1.477       .  S
C1110      C1117   1.477       .  S
C1112      C1157   1.480       .  S
C1113      C1118   1.393       .  A
C1113      H1119   1.083       .  S
C1114      C1115   1.410       .  A
C1115      C1116   1.399       .  A
C1115      H1120   1.077       .  S
C1116      H1121   1.083       .  S
C1117      C1118   1.403       .  A
C1118      H1122   1.083       .  S
C1123      C1128   1.401       .  A
C1123      H1129   1.083       .  S
C1124      C1125   1.400       .  A
C1125      C1126   1.391       .  A
C1125      H1130   1.084       .  S
C1126      C1127   1.405       .  A
C1126      H1131   1.083       .  S
C1128      H1132   1.083       .  S
C1133      C1138   1.393       .  A
C1133      H1139   1.083       .  S
C1134      C1135   1.403   1_455  A
C1135      C1136   1.402       .  A
C1135      H1140   1.083       .  S
C1136      H1141   1.083       .  S
C1137      C1138   1.405       .  A
C1138      H1142   1.083       .  S
C1143      C1144   1.403       .  A
C1143      C1148   1.394       .  A
C1143      H1149   1.083       .  S
C1145      C1146   1.399       .  A
C1145      H1150   1.083       .  S
C1146      H1151   1.077       .  S
C1147      C1148   1.408   1_455  A
C1148      H1152   1.083       .  S
C1153      C1154   1.403       .  A
C1153      C1158   1.394       .  A
C1153      H1159   1.083       .  S
C1154      C1155   1.402       .  A
C1155      C1156   1.402       .  A
C1155      H1160   1.083       .  S
C1156      C1157   1.407       .  A
C1156      H1161   1.083       .  S
C1157      C1158   1.405       .  A
C1158      H1162   1.083       .  S
C1163      C1164   1.404       .  A
C1163      C1168   1.401       .  A
C1163      H1169   1.083       .  S
C1164      C1165   1.405       .  A
C1165      C1166   1.394       .  A
C1165      H1170   1.083       .  S
C1166      C1167   1.407       .  A
C1166      H1171   1.083       .  S
C1167      C1168   1.412       .  A
C1168      H1172   1.077       .  S
C1173      C1174   1.207       .  T
C1175      C1176   1.207       .  T
C1177      C1178   1.208       .  T
C1179      C1180   1.207       .  T
C1181      C1182   1.209       .  T
C1183      C1184   1.209       .  T
