geometry optimzed in LAMMPS
_audit_creation_date              2020-11-30 
_audit_creation_method            'lammps2cif' 
_symmetry_space_group_name_H-M    'P1' 
_symmetry_Int_Tables_number       1 
_symmetry_cell_setting            triclinic 
loop_ 
_symmetry_equiv_pos_as_xyz 
  x,y,z 
_cell_length_a                    36.14737466 
_cell_length_b                    33.46244865044474 
_cell_length_c                    59.2518177901968 
_cell_angle_alpha                 88.26313922214227 
_cell_angle_beta                  90.66011299112952 
_cell_angle_gamma                 118.635036935554 
loop_ 
_atom_site_label 
_atom_site_type_symbol 
_atom_site_fract_x 
_atom_site_fract_y 
_atom_site_fract_z 
_atom_site_charge 
C1          C  0.09552334  0.49521181  0.10389058     0.03500
C2          C  0.10259927  0.45732886  0.10524053    -0.12700
C3          C  0.13095350  0.45578098  0.12078371     0.01000
C4          C  0.15064510  0.49129466  0.13611884    -0.11200
C5          C  0.15173422  0.03206089  0.13236533     0.03500
C6          C  0.13282046  0.04026254  0.11303241    -0.10600
H7          H  0.08717973  0.42974087  0.09360661     0.09100
H8          H  0.17294404  0.49028503  0.14814822     0.06600
H9          H  0.12922976  0.07051443  0.11157184     0.06400
C10         C  0.18505612  0.08011214  0.19154012     0.03500
C11         C  0.16878633  0.04962687  0.17376141    -0.12700
C12         C  0.16851664  0.06507144  0.15141718     0.01000
C13         C  0.18540086  0.11231129  0.14742541    -0.11200
C14         C  0.20101899  0.14372160  0.16518256     0.03500
C15         C  0.20079302  0.12717248  0.18725503    -0.10600
H16         H  0.15638454  0.01361925  0.17758635     0.09100
H17         H  0.18649014  0.12489345  0.13027655     0.06600
H18         H  0.21331855  0.15075026  0.20094868     0.06400
C19         C  0.44714184  0.09173410  0.09606027     0.03500
C20         C  0.48314346  0.13350054  0.10039956    -0.12700
C21         C  0.49765055  0.14514790  0.12252247     0.01000
C22         C  0.47491008  0.11452937  0.14061941    -0.11200
C23         C  0.43711555  0.07335482  0.13684304     0.03500
C24         C  0.42359520  0.06333670  0.11434486    -0.10600
H25         H  0.00098501  0.15419420  0.08583294     0.09100
H26         H  0.48740794  0.12244571  0.15755491     0.06600
H27         H  0.39503465  0.03232024  0.11073988     0.06400
C28         C  0.38260922  0.02956640  0.19441304     0.03500
C29         C  0.35465313  0.48554654  0.19052031    -0.12700
C30         C  0.35415857  0.46772783  0.16933905     0.01000
C31         C  0.38123856  0.49777139  0.15217651    -0.11200
C32         C  0.41172918  0.04077254  0.15604098     0.03500
C33         C  0.40949441  0.05803123  0.17707343    -0.10600
H34         H  0.33147775  0.46375925  0.20295153     0.09100
H35         H  0.37983028  0.48372920  0.13580943     0.06600
H36         H  0.42656420  0.09440804  0.17955572     0.06400
C37         C  0.43822456  0.25732490  0.18790286     0.03500
C38         C  0.41450715  0.26153370  0.16977346    -0.12700
C39         C  0.43311307  0.28125689  0.14860441     0.01000
C40         C  0.47636078  0.29509393  0.14595180    -0.11200
C41         C  0.00392767  0.29693140  0.16797319     0.03500
C42         C  0.48094606  0.27087795  0.18457026    -0.10600
H43         H  0.38102003  0.24828816  0.17227225     0.09100
H44         H  0.99974472  0.32503052  0.13559777     0.06600
H45         H  0.99910916  0.26891689  0.20174607     0.06400
C46         C  0.39205630  0.29061204  0.08904046     0.03500
C47         C  0.41810211  0.28794474  0.10637098    -0.12700
C48         C  0.40708475  0.28624804  0.12948601     0.01000
C49         C  0.37036024  0.28943116  0.13437329    -0.11200
C50         C  0.34382878  0.29119878  0.11714953     0.03500
C51         C  0.35468541  0.29075539  0.09466981    -0.10600
H52         H  0.44616276  0.28638851  0.10163021     0.09100
H53         H  0.36245743  0.29122446  0.15171096     0.06600
H54         H  0.33502324  0.29304050  0.08127693     0.06400
Zr55       Zr  0.24581065  0.30499436  0.16438240     2.17500
O56         O  0.27714671  0.30791106  0.20129850    -0.51000
O57         O  0.30010192  0.30056852  0.14336199    -0.74200
O58         O  0.23177438  0.22527167  0.17368572    -0.81000
O59         O  0.29099774  0.43459437  0.15008311    -0.82700
O60         O  0.19738621  0.19950171  0.14188187    -0.78300
O61         O  0.30492267  0.38507427  0.17093116    -0.90000
O62         O  0.28063937  0.29333622  0.10642251    -0.75900
O63         O  0.20953105  0.25714303  0.13355684    -0.85400
O64         O  0.25221398  0.35009561  0.13114252    -0.85100
O65         O  0.17260076  0.25855102  0.17621101    -0.71900
O66         O  0.21117618  0.34813339  0.17407916    -0.84000
Zr67       Zr  0.11095550  0.30171133  0.12136061     2.26400
Zr68       Zr  0.13770233  0.21171863  0.14451074     2.06300
Zr69       Zr  0.21821936  0.39303894  0.14054298     2.10000
Zr70       Zr  0.21692814  0.30162074  0.10091543     1.78800
O71         O  0.23318046  0.44834098  0.16982083    -0.92800
O72         O  0.20373966  0.23594400  0.07874876    -0.40600
O73         O  0.18329270  0.34637823  0.10930107    -0.77300
O74         O  0.14326961  0.25629070  0.11108210    -0.95900
O75         O  0.10381993  0.25467396  0.15362832    -0.89200
O76         O  0.14654739  0.34928574  0.15221778    -0.92100
C77         C  0.30563964  0.29516082  0.12261013     1.01700
C78         C  0.31489277  0.42576706  0.16286836     1.14600
C79         C  0.21198607  0.19212109  0.16012760     1.05400
O80         O  0.11327312  0.14208612  0.12355831    -0.94200
O81         O  0.06333884  0.17356495  0.13584954    -0.90000
O82         O  0.04823187  0.22500665  0.11772728    -0.83100
C83         C  0.03793870  0.18432545  0.12548894     1.12000
O84         O  0.15901122  0.30178438  0.22333219    -0.96200
Zr85       Zr  0.13773845  0.30212305  0.18423884     1.88900
O86         O  0.05472513  0.30204019  0.14212045    -0.72900
O87         O  0.11597275  0.15956765  0.17724207    -0.52100
O88         O  0.08965396  0.23335952  0.20539925    -0.96800
O89         O  0.14504622  0.36726654  0.20504263    -0.54000
O90         O  0.06844607  0.29862170  0.17946929    -0.73400
C91         C  0.04529362  0.29990451  0.16302480     0.99000
O92         O  0.08718568  0.30274746  0.08283034    -0.62200
O93         O  0.25264311  0.44840928  0.10980141    -0.57000
O94         O  0.11449068  0.37743316  0.11614669    -0.93700
O95         O  0.17882733  0.43002659  0.12879990    -0.92100
O96         O  0.27064036  0.36764214  0.08014383    -0.92500
O97         O  0.19601184  0.30904201  0.06245943    -0.91300
C98         C  0.14191437  0.41850696  0.12136126     1.17800
H99         H  0.28134814  0.36928912  0.12691693     0.33700
H100        H  0.12785688  0.23656669  0.09890764     0.44600
H101        H  0.13451541  0.36830746  0.15630989     0.38100
H102        H  0.17115360  0.24009784  0.18936956     0.34600
H103        H  0.22667864  0.24791814  0.06736608     0.26400
H104        H  0.09180855  0.16164309  0.18365848     0.32300
H105        H  0.07086974  0.24189379  0.21360110     0.38200
H106        H  0.29573019  0.36306194  0.07983099     0.32700
H107        H  0.26671973  0.47826708  0.11715458     0.31600
H108        H  0.21084791  0.45733375  0.16853430     0.33300
H109        H  0.11754573  0.36682441  0.20361218     0.32200
H110        H  0.16480601  0.29268859  0.06286122     0.36200
H111        H  0.08326700  0.27394364  0.07647832     0.29000
H112        H  0.29192905  0.28968521  0.19993527     0.33200
H113        H  0.19020548  0.31840551  0.22284240     0.36000
H114        H  0.27603097  0.44315187  0.10493133     0.28700
H115        H  0.05825816  0.29841150  0.08449726     0.41500
H116        H  0.13399482  0.15031304  0.11114900     0.31600
H117        H  0.21034254  0.21638915  0.08905693     0.39200
H118        H  0.16464386  0.39423681  0.19587096     0.31000
H119        H  0.10327092  0.12884034  0.17081365     0.31100
H120        H  0.25285516  0.28929981  0.21137263     0.31400
Zr121      Zr  0.31135266  0.12899892  0.35387886     2.17500
O122        O  0.31066866  0.11118875  0.39423750    -0.51000
O123        O  0.28585938  0.17443589  0.37375480    -0.74200
O124        O  0.37979750  0.16591522  0.37125726    -0.81000
O125        O  0.20045304  0.04284290  0.34899451    -0.82700
O126        O  0.43266892  0.20385725  0.34588304    -0.78300
O127        O  0.25970320  0.05445663  0.36690282    -0.90000
O128        O  0.28565299  0.22634320  0.34837670    -0.75900
O129        O  0.34694567  0.19814006  0.33232058    -0.85400
O130        O  0.25671445  0.13298793  0.33283121    -0.85100
O131        O  0.36312328  0.12114556  0.33168949    -0.71900
O132        O  0.28010781  0.06129377  0.33205464    -0.84000
Zr133      Zr  0.31120231  0.12614831  0.26608900     2.26400
Zr134      Zr  0.39693087  0.19028160  0.30881633     2.06300
Zr135      Zr  0.22618500  0.06659072  0.31014777     2.10000
Zr136      Zr  0.29238629  0.20173297  0.31111126     1.78800
O137        O  0.18909123  0.98537734  0.30289874    -0.92800
O138        O  0.34525250  0.28195327  0.31046429    -0.40600
O139        O  0.26095181  0.13584231  0.28815279    -0.77300
O140        O  0.34211973  0.19456476  0.28742892    -0.95900
O141        O  0.36586278  0.12283371  0.28709594    -0.89200
O142        O  0.27607145  0.05685881  0.28766739    -0.92100
C143        C  0.28158505  0.20953271  0.36850986     1.01700
C144        C  0.21994952  0.03963049  0.36661539     1.14600
C145        C  0.41875406  0.19072310  0.36621406     1.05400
O146        O  0.43240293  0.27282187  0.31156448    -0.94200
O147        O  0.42400871  0.21875415  0.26984276    -0.90000
O148        O  0.37072344  0.18066627  0.24513823    -0.83100
C149        C  0.40838058  0.21065187  0.24965919     1.12000
O150        O  0.34063027  0.01370002  0.34150409    -0.96200
Zr151      Zr  0.33091040  0.05439375  0.30914661     1.88900
O152        O  0.33622851  0.08110100  0.24627795    -0.72900
O153        O  0.46156067  0.18581773  0.30355006    -0.52100
O154        O  0.39829940  0.05439320  0.30909208    -0.96800
O155        O  0.28063436  0.97335483  0.30820149    -0.54000
O156        O  0.34405878  0.03431749  0.27210465    -0.73400
C157        C  0.34563390  0.04971301  0.25187071     0.99000
O158        O  0.29873095  0.16105130  0.23212203    -0.62200
O159        O  0.15587270  0.05846006  0.31442461    -0.57000
O160        O  0.24477845  0.07483311  0.24948405    -0.93700
O161        O  0.19759008  0.07556286  0.27358080    -0.92100
O162        O  0.22503052  0.20141779  0.31321302    -0.92500
O163        O  0.27611364  0.23766725  0.27895849    -0.91300
C164        C  0.20993573  0.07421067  0.25349266     1.17800
H165        H  0.23526641  0.13318873  0.34232278     0.33700
H166        H  0.35399444  0.22097061  0.27735119     0.44600
H167        H  0.26243330  0.03062000  0.27826401     0.38100
H168        H  0.38344906  0.11774015  0.34110475     0.34600
H169        H  0.35281387  0.29032060  0.29436027     0.26400
H170        H  0.48440428  0.21566888  0.30830605     0.32300
H171        H  0.41733624  0.08199341  0.30009621     0.38200
H172        H  0.20430863  0.17147312  0.30737329     0.32700
H173        H  0.13852871  0.02787944  0.32148296     0.31600
H174        H  0.16071153  0.97925577  0.29781539     0.33300
H175        H  0.25818731  0.46504746  0.31777772     0.32200
H176        H  0.28006058  0.22299156  0.26561286     0.36200
H177        H  0.29018715  0.13799574  0.22029903     0.29000
H178        H  0.32322502  0.14061305  0.40198801     0.33200
H179        H  0.35838507  0.03760360  0.35216442     0.36000
H180        H  0.15878730  0.08003396  0.32626761     0.28700
H181        H  0.27311062  0.16353459  0.23534963     0.41500
H182        H  0.45872031  0.28363280  0.30273033     0.31600
H183        H  0.32960162  0.29820701  0.31454255     0.39200
H184        H  0.25436638  0.97060870  0.31466490     0.31000
H185        H  0.46063867  0.16384177  0.31539595     0.31100
H186        H  0.33099841  0.09949343  0.39647481     0.31400
C187        C  0.22823070  0.44075512  0.52564603     0.03500
C188        C  0.20738749  0.45359002  0.50899867    -0.12700
C189        C  0.22426330  0.46892838  0.48714582     0.01000
C190        C  0.26328620  0.46940994  0.48253156    -0.11200
C191        C  0.28333616  0.45364056  0.49865508     0.03500
C192        C  0.26541155  0.43966570  0.52019502    -0.10600
H193        H  0.17757630  0.45125565  0.51351576     0.09100
H194        H  0.28075417  0.98469213  0.46783262     0.06600
H195        H  0.28077814  0.42857207  0.53277219     0.06400
C196        C  0.19347535  0.50429969  0.43007090     0.03500
C197        C  0.21303364  0.48975771  0.44662568    -0.12700
C198        C  0.20137577  0.48420606  0.46958280     0.01000
C199        C  0.16711064  0.49239753  0.47502867    -0.11200
C200        C  0.14628547  0.50621361  0.45832779     0.03500
C201        C  0.16070245  0.51315140  0.43609175    -0.10600
H202        H  0.23732312  0.48230501  0.44105695     0.09100
H203        H  0.15564673  0.48776504  0.49214742     0.06600
H204        H  0.14524182  0.52391602  0.42345008     0.06400
C205        C  0.15763263  0.23548733  0.51616423     0.03500
C206        C  0.12664719  0.18987997  0.51488737    -0.12700
C207        C  0.12544010  0.16400705  0.49670199     0.01000
C208        C  0.15727185  0.18317974  0.48008898    -0.11200
C209        C  0.18837027  0.22926368  0.48014872     0.03500
C210        C  0.18707523  0.25571998  0.49832913    -0.10600
H211        H  0.10227869  0.17506026  0.52773652     0.09100
H212        H  0.15722441  0.16137101  0.46706845     0.06600
H213        H  0.20886141  0.29167312  0.49918561     0.06400
C214        C  0.25341312  0.24205149  0.42581087     0.03500
C215        C  0.21964910  0.22522575  0.44149742    -0.12700
C216        C  0.22241644  0.24831086  0.46190512     0.01000
C217        C  0.25998854  0.28884580  0.46556311    -0.11200
C218        C  0.29330888  0.30634674  0.44989260     0.03500
C219        C  0.28971139  0.28310823  0.43013080    -0.10600
H220        H  0.19173307  0.19409834  0.43742443     0.09100
H221        H  0.26458386  0.30663851  0.48107835     0.06600
H222        H  0.31656544  0.29555678  0.41884541     0.06400
C223        C  0.44223828  0.23363323  0.53146978     0.03500
C224        C  0.44681657  0.21229060  0.51234207    -0.12700
C225        C  0.44308430  0.22665429  0.49014842     0.01000
C226        C  0.43059625  0.26080246  0.48801902    -0.11200
C227        C  0.42405568  0.28156180  0.50695640     0.03500
C228        C  0.42978437  0.26749620  0.52866257    -0.10600
H229        H  0.45589185  0.18616669  0.51519210     0.09100
H230        H  0.43047338  0.27568231  0.47160123     0.06600
H231        H  0.43021075  0.28716995  0.54294375     0.06400
C232        C  0.45455004  0.19950299  0.42832904     0.03500
C233        C  0.47700321  0.17488366  0.43097475    -0.12700
C234        C  0.99353836  0.16620116  0.44986646     0.01000
C235        C  0.98811892  0.18814143  0.46869952    -0.11200
C236        C  0.96317479  0.21048982  0.46770313     0.03500
C237        C  0.44343312  0.21533412  0.44755706    -0.10600
H238        H  0.48128041  0.15814121  0.41664790     0.09100
H239        H  0.00107457  0.18404068  0.48454733     0.06600
H240        H  0.42314368  0.23050449  0.44509336     0.06400
Zr241      Zr  0.39656994  0.41160496  0.49808659     2.17500
O242        O  0.36908651  0.38447795  0.53602649    -0.51000
O243        O  0.34062994  0.35553681  0.47629751    -0.74200
O244        O  0.33593593  0.42777195  0.50238223    -0.81000
O245        O  0.46726698  0.35504323  0.49507616    -0.82700
O246        O  0.35054366  0.49231951  0.48190498    -0.78300
O247        O  0.40180516  0.34030432  0.50645500    -0.90000
O248        O  0.35838494  0.37032772  0.43909877    -0.75900
O249        O  0.39181762  0.45181863  0.46531092    -0.85400
O250        O  0.43325996  0.39996366  0.46787312    -0.85100
O251        O  0.42873417  0.49053409  0.50794766    -0.71900
O252        O  0.46854794  0.44198819  0.51055071    -0.84000
Zr253      Zr  0.03164303  0.04401255  0.45289458     2.26400
Zr254      Zr  0.42198296  0.02773078  0.47161442     2.06300
Zr255      Zr  0.50449456  0.43032511  0.47996185     2.10000
Zr256      Zr  0.42674444  0.43870635  0.43515371     1.78800
O257        O  0.04351982  0.42078820  0.51659944    -0.92800
O258        O  0.37826734  0.45644580  0.41353746    -0.40600
O259        O  0.49945490  0.46731566  0.44575482    -0.77300
O260        O  0.45936772  0.01610055  0.44136291    -0.95900
O261        O  0.49297026  0.06033481  0.48376081    -0.89200
O262        O  0.03711881  0.51179121  0.49071863    -0.92100
C263        C  0.33333335  0.34684793  0.45534463     1.01700
C264        C  0.43078117  0.32859582  0.50310689     1.14600
C265        C  0.32567540  0.45747195  0.49391376     1.05400
O266        O  0.39975432  0.04871161  0.43624539    -0.94200
O267        O  0.47909753  0.10360315  0.47507703    -0.90000
O268        O  0.01940913  0.11089240  0.44262905    -0.83100
C269        C  0.49663300  0.12718491  0.45736823     1.12000
O270        O  0.47869869  0.49731521  0.55732459    -0.96200
Zr271      Zr  0.49984779  0.02784399  0.51799995     1.88900
O272        O  0.08489889  0.10393432  0.47346037    -0.72900
O273        O  0.39240701  0.07371369  0.48627375    -0.52100
O274        O  0.48029111  0.08059074  0.53494556    -0.96800
O275        O  0.05237375  0.51841495  0.54297734    -0.54000
O276        O  0.06239721  0.09810130  0.50968836    -0.73400
C277        C  0.08877711  0.11872724  0.49338068     0.99000
O278        O  0.06710473  0.07340775  0.41676487    -0.62200
O279        O  0.51304673  0.38269299  0.45240026    -0.57000
O280        O  0.09235495  0.02702098  0.45075558    -0.93700
O281        O  0.08153777  0.47065508  0.47663313    -0.92100
O282        O  0.42960194  0.37994378  0.41308987    -0.92500
O283        O  0.45858055  0.46186340  0.39771730    -0.91300
C284        C  0.10448921  0.50350376  0.46317586     1.17800
H285        H  0.42142668  0.36808956  0.46460092     0.33700
H286        H  0.45823627  0.03145863  0.42751613     0.44600
H287        H  0.06492982  0.02217159  0.49316194     0.38100
H288        H  0.41297470  0.49433805  0.51997992     0.34600
H289        H  0.38738770  0.48886269  0.41626427     0.26400
H290        H  0.41130139  0.09074207  0.49877458     0.32300
H291        H  0.00020485  0.10893520  0.52611893     0.38200
H292        H  0.42006272  0.35308249  0.42347527     0.32700
H293        H  0.99930297  0.36425474  0.45352969     0.31600
H294        H  0.02368593  0.41337564  0.52938862     0.33300
H295        H  0.03306934  0.98520139  0.54704485     0.32200
H296        H  0.46866265  0.49506759  0.39651020     0.36200
H297        H  0.04455077  0.07088957  0.40632572     0.29000
H298        H  0.33818396  0.37183263  0.53468993     0.33200
H299        H  0.49227920  0.02825335  0.56607507     0.36000
H300        H  0.52195585  0.40155670  0.43829413     0.28700
H301        H  0.08478242  0.10654242  0.41888025     0.41500
H302        H  0.37405958  0.54288946  0.44082170     0.31600
H303        H  0.38493864  0.45582540  0.39744236     0.39200
H304        H  0.07660584  0.52535331  0.53301598     0.31000
H305        H  0.39755164  0.09711331  0.47430874     0.31100
H306        H  0.37848775  0.41259143  0.54465506     0.31400
C307        C  0.26369875  0.36794949  0.75339973     0.03500
C308        C  0.25037939  0.32155454  0.75694708    -0.12700
C309        C  0.24843692  0.30335851  0.77859304     0.01000
C310        C  0.26116444  0.33244828  0.79718249    -0.11200
C311        C  0.27617402  0.37989944  0.79423072     0.03500
C312        C  0.27657078  0.39709151  0.77193431    -0.10600
H313        H  0.24230646  0.29944107  0.74262961     0.09100
H314        H  0.26042370  0.31799632  0.81384565     0.06600
H315        H  0.28821373  0.43314929  0.76870356     0.06400
C316        C  0.32773869  0.43366408  0.85099565     0.03500
C317        C  0.32450834  0.47389009  0.84976593    -0.12700
C318        C  0.30369573  0.48220054  0.83173840     0.01000
C319        C  0.28815074  0.45128796  0.81395609    -0.11200
C320        C  0.29228593  0.41150995  0.81403904     0.03500
C321        C  0.31137698  0.40255036  0.83323164    -0.10600
H322        H  0.35191966  0.01013238  0.85848904     0.09100
H323        H  0.27165836  0.45793794  0.80021990     0.06600
H324        H  0.31440296  0.37203640  0.83435449     0.06400
C325        C  0.05816518  0.42333654  0.76502742     0.03500
C326        C  0.08309215  0.46938380  0.77010468    -0.12700
C327        C  0.08616557  0.48382227  0.79229279     0.01000
C328        C  0.06091690  0.45178510  0.80926093    -0.11200
C329        C  0.03442454  0.40497371  0.80466662     0.03500
C330        C  0.03393658  0.39161924  0.78221410    -0.10600
H331        H  0.10353925  0.49306983  0.75717602     0.09100
H332        H  0.06338381  0.46398578  0.82615442     0.06600
H333        H  0.01567941  0.35622247  0.77799206     0.06400
C334        C  0.49890536  0.35015135  0.86343019     0.03500
C335        C  0.46387555  0.30818572  0.85826643    -0.12700
C336        C  0.45035086  0.29829653  0.83591801     0.01000
C337        C  0.47288257  0.33086763  0.81849502    -0.11200
C338        C  0.00934669  0.36975292  0.82318035     0.03500
C339        C  0.01937602  0.37877069  0.84625290    -0.10600
H340        H  0.44442586  0.28496251  0.87152976     0.09100
H341        H  0.46031855  0.32430656  0.80154644     0.06600
H342        H  0.04541419  0.41076149  0.85119947     0.06400
C343        C  0.03504450  0.12108539  0.86261206     0.03500
C344        C  0.07825852  0.13611183  0.86003237    -0.12700
C345        C  0.09704224  0.14989195  0.83864863     0.01000
C346        C  0.07294294  0.15336819  0.82042554    -0.11200
C347        C  0.02918792  0.13774198  0.82257849     0.03500
C348        C  0.01072782  0.11994864  0.84386640    -0.10600
H349        H  0.09596447  0.13242948  0.87408215     0.09100
H350        H  0.08854564  0.16686740  0.80441248     0.06600
H351        H  0.97693571  0.10347313  0.84612870     0.06400
C352        C  0.48967650  0.15175354  0.76255785     0.03500
C353        C  0.51571804  0.15131480  0.78039306    -0.12700
C354        C  0.50093100  0.14038414  0.80293557     0.01000
C355        C  0.45856288  0.12985858  0.80679259    -0.11200
C356        C  0.43313890  0.13321672  0.78943753     0.03500
C357        C  0.44852599  0.14286126  0.76732851    -0.10600
H358        H  0.04598058  0.14466736  0.77635906     0.09100
H359        H  0.44455671  0.11955925  0.82332106     0.06600
H360        H  0.42924121  0.14653529  0.75424022     0.06400
Zr361      Zr  0.19971206  0.14311879  0.79282092     2.17500
O362        O  0.17273494  0.14559802  0.75525219    -0.51000
O363        O  0.14540215  0.14758633  0.81349222    -0.74200
O364        O  0.13813281  0.06468168  0.78834594    -0.81000
O365        O  0.28113437  0.25856100  0.77867430    -0.82700
O366        O  0.14561713  0.02010320  0.81569087    -0.78300
O367        O  0.21145488  0.22175991  0.78533081    -0.90000
O368        O  0.16386449  0.15672617  0.85054799    -0.75900
O369        O  0.19180623  0.10259446  0.82765218    -0.85400
O370        O  0.24079808  0.19720805  0.82080468    -0.85100
O371        O  0.22709348  0.09168670  0.78570405    -0.71900
O372        O  0.27149386  0.17981121  0.77904546    -0.84000
Zr373      Zr  0.33247143  0.14328272  0.83596390     2.26400
Zr374      Zr  0.22031474  0.05307140  0.82151029     2.06300
Zr375      Zr  0.31190495  0.23267799  0.80735273     2.10000
Zr376      Zr  0.23167072  0.15597131  0.85523748     1.78800
O377        O  0.36222304  0.28880712  0.78076275    -0.92800
O378        O  0.18212276  0.09642289  0.88086547    -0.40600
O379        O  0.30446867  0.19400764  0.84293826    -0.77300
O380        O  0.26069608  0.10514403  0.85018451    -0.95900
O381        O  0.29075311  0.09099393  0.80843107    -0.89200
O382        O  0.34004687  0.18324930  0.80092483    -0.92100
C383        C  0.13855851  0.15251131  0.83408504     1.01700
C384        C  0.24621394  0.25839959  0.78088053     1.14600
C385        C  0.12460862  0.02646610  0.79985834     1.05400
O386        O  0.19521634  0.00822057  0.85653094    -0.94200
O387        O  0.26363888  0.01723115  0.82454924    -0.90000
O388        O  0.32752200  0.06680944  0.83891936    -0.83100
C389        C  0.30060920  0.02735466  0.83149619     1.12000
O390        O  0.27313445  0.11717406  0.73509172    -0.96200
Zr391      Zr  0.29987430  0.12911316  0.77357122     1.88900
O392        O  0.38694019  0.13797006  0.81559770    -0.72900
O393        O  0.19404426  0.98327552  0.80026615    -0.52100
O394        O  0.28627540  0.05424254  0.76167362    -0.96800
O395        O  0.34606559  0.18633665  0.74595906    -0.54000
O396        O  0.36700959  0.12803426  0.77872329    -0.73400
C397        C  0.39273642  0.13223023  0.79491401     0.99000
O398        O  0.35541369  0.14224961  0.87466778    -0.62200
O399        O  0.31577448  0.29505021  0.82894147    -0.57000
O400        O  0.39609945  0.21924408  0.83987071    -0.93700
O401        O  0.38405823  0.27040504  0.81935884    -0.92100
O402        O  0.24814279  0.22830146  0.87190093    -0.92500
O403        O  0.25714356  0.16186394  0.89386617    -0.91300
C404        C  0.40771545  0.25974247  0.83139123     1.17800
H405        H  0.23191459  0.21969465  0.82334943     0.33700
H406        H  0.25938344  0.08900969  0.86420703     0.44600
H407        H  0.36910330  0.20039733  0.79613546     0.38100
H408        H  0.21001096  0.07020995  0.77449581     0.34600
H409        H  0.17023844  0.11175698  0.89010017     0.26400
H410        H  0.20954759  0.49452619  0.78175336     0.32300
H411        H  0.25533045  0.03673803  0.75977423     0.38200
H412        H  0.23318813  0.24092370  0.86248288     0.32700
H413        H  0.32811184  0.29269443  0.84359972     0.31600
H414        H  0.37578290  0.27291505  0.77342991     0.33300
H415        H  0.37396547  0.20186773  0.75334795     0.32200
H416        H  0.28797285  0.17419447  0.89229254     0.36200
H417        H  0.38528083  0.14953877  0.87327674     0.29000
H418        H  0.16191067  0.11443506  0.74960037     0.33200
H419        H  0.25364403  0.13020447  0.73452869     0.36000
H420        H  0.33852158  0.32240688  0.82130907     0.28700
H421        H  0.35661397  0.16965808  0.88130183     0.41500
H422        H  0.17061326  0.01164487  0.86100214     0.31600
H423        H  0.15843513  0.07617183  0.87114621     0.39200
H424        H  0.33628479  0.20937842  0.74525887     0.31000
H425        H  0.18162810  0.98865437  0.78628549     0.31100
H426        H  0.19829488  0.16441424  0.74604643     0.31400
Zr427      Zr  0.48673569  0.47813655  0.93590867     2.17500
O428        O  0.02372354  0.50141003  0.90507556    -0.51000
O429        O  0.43721997  0.46615012  0.90541178    -0.74200
O430        O  0.48935373  0.41557372  0.91828334    -0.81000
O431        O  0.00332404  0.08996874  0.94267142    -0.82700
O432        O  0.46505154  0.35449937  0.94269570    -0.78300
O433        O  0.00085445  0.03749019  0.91844236    -0.90000
O434        O  0.37148481  0.43613190  0.92048754    -0.75900
O435        O  0.42629971  0.41084815  0.94888911    -0.85400
O436        O  0.43884024  0.00770897  0.95064968    -0.85100
O437        O  0.51273512  0.44585999  0.96454203    -0.71900
O438        O  0.01964142  0.02065339  0.96258997    -0.84000
Zr439      Zr  0.43993733  0.45738820  0.01987445     2.26400
Zr440      Zr  0.45125926  0.37940851  0.97861637     2.06300
Zr441      Zr  0.48330699  0.05941472  0.97859230     2.10000
Zr442      Zr  0.37958244  0.43682693  0.96174094     1.78800
O443        O  0.03956808  0.11814280  0.98663356    -0.92800
O444        O  0.32297421  0.35998878  0.95521018    -0.40600
O445        O  0.42154975  0.99565748  0.99418291    -0.77300
O446        O  0.40193052  0.40259805  0.99162389    -0.95900
O447        O  0.48766309  0.43308377  0.00692709    -0.89200
O448        O  0.00227995  0.01706374  0.00670758    -0.92100
C449        C  0.39730727  0.45072179  0.90368435     1.01700
C450        C  0.00874329  0.07775553  0.92317444     1.14600
C451        C  0.47961334  0.37418463  0.92338829     1.05400
O452        O  0.38520767  0.30828542  0.97715322    -0.94200
O453        O  0.44768118  0.34883092  0.01753121    -0.90000
O454        O  0.43331812  0.39193208  0.04127173    -0.83100
C455        C  0.44014931  0.35864616  0.03725371     1.12000
O456        O  0.10215640  0.52026796  0.95802056    -0.96200
Zr457      Zr  0.04670732  0.49056405  0.98657944     1.88900
O458        O  0.48824015  0.47427152  0.05083271    -0.72900
O459        O  0.49114086  0.33776423  0.97997059    -0.52100
O460        O  0.08175950  0.44434528  0.98360322    -0.96800
O461        O  0.10392091  0.06771854  0.99546536    -0.54000
O462        O  0.06326558  0.48241733  0.02546072    -0.73400
C463        C  0.04767683  0.48305302  0.04465219     0.99000
O464        O  0.37192318  0.42415699  0.03902463    -0.62200
O465        O  0.44281389  0.09918969  0.97094931    -0.57000
O466        O  0.44771646  0.02258570  0.03990348    -0.93700
O467        O  0.47203210  0.08378104  0.01550600    -0.92100
O468        O  0.34303236  0.98858776  0.95940917    -0.92500
O469        O  0.31706998  0.41756937  0.98435620    -0.91300
C470        C  0.45872707  0.06440625  0.03505526     1.17800
H471        H  0.43070379  0.02347886  0.93938506     0.33700
H472        H  0.37776110  0.37685460  0.99842199     0.44600
H473        H  0.01737092  0.03964479  0.01784572     0.38100
H474        H  0.01553266  0.42747711  0.95179078     0.34600
H475        H  0.31808453  0.35856380  0.93871588     0.26400
H476        H  0.51635452  0.35672037  0.98908969     0.32300
H477        H  0.06491143  0.41705283  0.99332124     0.38200
H478        H  0.32525525  0.46823198  0.94211789     0.33300
H479        H  0.46413913  0.13185060  0.97048005     0.31600
H480        H  0.03934676  0.14176480  0.97625586     0.33300
H481        H  0.09524398  0.08068873  0.00784701     0.32200
H482        H  0.31494151  0.39347235  0.99521284     0.36200
H483        H  0.37869177  0.42573798  0.05531984     0.29000
H484        H  0.00867272  0.48664870  0.89111849     0.33200
H485        H  0.08823637  0.52299181  0.94401442     0.36000
H486        H  0.43338572  0.09241907  0.95511057     0.28700
H487        H  0.36165938  0.44655064  0.03647410     0.41500
H488        H  0.38324822  0.29255399  0.99186777     0.31600
H489        H  0.33580739  0.34006667  0.95821613     0.39200
H490        H  0.10217925  0.08422198  0.98168610     0.31000
H491        H  0.47434125  0.31021708  0.98954878     0.31100
H492        H  0.04212881  0.48771290  0.90863662     0.31400
Zr493      Zr  0.11157143  0.29520902  0.69007535     2.17500
O494        O  0.13592994  0.25753288  0.71785058    -0.51000
O495        O  0.08449384  0.32713886  0.71726607    -0.74200
O496        O  0.17310227  0.34910178  0.70979651    -0.81000
O497        O  0.00110276  0.19541982  0.68294012    -0.82700
O498        O  0.22244886  0.39702699  0.68438461    -0.78300
O499        O  0.05539761  0.22854325  0.70763437    -0.90000
O500        O  0.07023879  0.37828358  0.69847539    -0.75900
O501        O  0.13779586  0.36969737  0.67393279    -0.85400
O502        O  0.05150292  0.29629031  0.67394113    -0.85100
O503        O  0.16507320  0.30377709  0.66378876    -0.71900
O504        O  0.08377684  0.23470868  0.66382536    -0.84000
Zr505      Zr  0.10233466  0.32001551  0.60397264     2.26400
Zr506      Zr  0.18989186  0.37837824  0.64671922     2.06300
Zr507      Zr  0.02444139  0.23758349  0.64668618     2.10000
Zr508      Zr  0.07788705  0.37091224  0.65799244     1.78800
O509        O  0.99612460  0.15872610  0.63566322    -0.92800
O510        O  0.11687103  0.45251614  0.66450065    -0.40600
O511        O  0.04948727  0.31255589  0.63033815    -0.77300
O512        O  0.13000765  0.38072591  0.63030345    -0.95900
O513        O  0.16226879  0.31879897  0.62019343    -0.89200
O514        O  0.07640120  0.24535333  0.61977070    -0.92100
C515        C  0.07306626  0.35791818  0.71664492     1.01700
C516        C  0.01822196  0.19808694  0.70240210     1.14600
C517        C  0.20949626  0.38197740  0.70464311     1.05400
O518        O  0.21802793  0.46060156  0.64684954    -0.94200
O519        O  0.21768433  0.40645823  0.60796679    -0.90000
O520        O  0.16145047  0.37795319  0.58436487    -0.83100
C521        C  0.20066967  0.40257303  0.58827098     1.12000
O522        O  0.15980582  0.20561821  0.66364275    -0.96200
Zr523      Zr  0.13611809  0.24475583  0.63658658     1.88900
O524        O  0.12716791  0.28587167  0.57619550    -0.72900
O525        O  0.25962287  0.38387525  0.64764804    -0.52100
O526        O  0.20414255  0.24796699  0.63109571    -0.96800
O527        O  0.08860438  0.16388557  0.63174070    -0.54000
O528        O  0.14693296  0.24050791  0.59645423    -0.73400
C529        C  0.14204840  0.25789478  0.57778001     0.99000
O530        O  0.08150052  0.36585034  0.57960563    -0.62200
O531        O  0.44871506  0.24145014  0.65643275    -0.57000
O532        O  0.03784908  0.27376695  0.58418400    -0.93700
O533        O  0.98768078  0.23365029  0.61074582    -0.92100
O534        O  0.00405907  0.35227555  0.66056473    -0.92500
O535        O  0.06574061  0.42131410  0.63204645    -0.91300
C536        C  0.99954632  0.24767151  0.59024733     1.17800
H537        H  0.02998889  0.29006517  0.68509316     0.33700
H538        H  0.13919250  0.40954331  0.62231122     0.44600
H539        H  0.06428575  0.22259642  0.60836148     0.38100
H540        H  0.18783249  0.30227226  0.67179373     0.34600
H541        H  0.10859967  0.45676111  0.67973917     0.26400
H542        H  0.25442917  0.35247430  0.64521083     0.32300
H543        H  0.22153330  0.27753029  0.62311375     0.38200
H544        H  0.99860097  0.35278575  0.67685720     0.32700
H545        H  0.44853122  0.24259655  0.67310324     0.31600
H546        H  0.44973953  0.15118147  0.64389168     0.33300
H547        H  0.08282675  0.15025028  0.64721812     0.32200
H548        H  0.04082057  0.40096201  0.62308907     0.36200
H549        H  0.05337228  0.35915963  0.58524844     0.29000
H550        H  0.16650262  0.27022043  0.71501152     0.33200
H551        H  0.14939679  0.20915725  0.67841932     0.36000
H552        H  0.93679553  0.19306986  0.65814035     0.28700
H553        H  0.10009203  0.39774299  0.58390439     0.41500
H554        H  0.24827290  0.47316798  0.64311717     0.31600
H555        H  0.14658651  0.45931188  0.66612016     0.39200
H556        H  0.10625634  0.15233382  0.62475189     0.31000
H557        H  0.27403312  0.40111634  0.63370872     0.31100
H558        H  0.12365182  0.22553975  0.71316346     0.31400
C559        C  0.50899438  0.16898411  0.73992337    -0.16100
C560        C  0.99319564  0.16573122  0.72073383    -0.31300
H561        H  0.04659360  0.17696938  0.73967633     0.12900
H562        H  0.45415883  0.15312500  0.72018119     0.13500
C563        C  0.01289610  0.09651248  0.88333186    -0.16100
C564        C  0.02572935  0.11118357  0.90431063    -0.31300
H565        H  0.98573212  0.06310087  0.88109986     0.12900
H566        H  0.05072775  0.14552324  0.90718667     0.13500
C567        C  0.50674671  0.36867175  0.88657623    -0.16100
C568        C  0.48322590  0.34720753  0.90503470    -0.31300
H569        H  0.52878839  0.40486225  0.88765284     0.12900
H570        H  0.46267388  0.31070541  0.90567655     0.13500
C571        C  0.06295889  0.37000256  0.73866881    -0.16100
C572        C  0.06128707  0.40869053  0.74198618    -0.31300
H573        H  0.06049452  0.34798506  0.75307810     0.12900
H574        H  0.06742889  0.43261851  0.72789107     0.13500
C575        C  0.38145422  0.45479239  0.88100178    -0.16100
C576        C  0.34529927  0.42309956  0.87187434    -0.31300
H577        H  0.40031573  0.48641149  0.87151044     0.12900
H578        H  0.32777264  0.38980366  0.88013022     0.13500
C579        C  0.23773874  0.40135005  0.72405055    -0.16100
C580        C  0.26294316  0.38365674  0.72980598    -0.31300
H581        H  0.22592515  0.41375487  0.73744239     0.12900
H582        H  0.27064014  0.36657290  0.71676576     0.13500
C583        C  0.45464849  0.23939177  0.57349636    -0.16100
C584        C  0.46196730  0.22877400  0.55286714    -0.31300
H585        H  0.93701977  0.23259261  0.57603047     0.12900
H586        H  0.48782144  0.22109202  0.55109446     0.13500
C587        C  0.15737365  0.26116411  0.53622582    -0.16100
C588        C  0.15224119  0.24158885  0.55703123    -0.31300
H589        H  0.15906215  0.29431180  0.53385285     0.12900
H590        H  0.15383674  0.21001071  0.55888086     0.13500
C591        C  0.22692044  0.42583556  0.56797370    -0.16100
C592        C  0.20763041  0.42493706  0.54805173    -0.31300
H593        H  0.26099404  0.44132786  0.56904103     0.12900
H594        H  0.17365657  0.41152721  0.54790530     0.13500
C595        C  0.44833531  0.20200580  0.38561795    -0.16100
C596        C  0.43363449  0.20049927  0.40670895    -0.31300
H597        H  0.48023084  0.20787259  0.38294353     0.12900
H598        H  0.40267048  0.19800808  0.40846657     0.13500
C599        C  0.27359044  0.23412928  0.38668848    -0.16100
C600        C  0.25330088  0.21447735  0.40630156    -0.31300
H601        H  0.28556781  0.27047220  0.38380074     0.12900
H602        H  0.23798552  0.17764923  0.40850068     0.13500
C603        C  0.21678409  0.01917847  0.40687012    -0.16100
C604        C  0.19634952  0.01989154  0.38779935    -0.31300
H605        H  0.24288547  0.51846102  0.40545286     0.12900
H606        H  0.16282649  0.00890903  0.38799311     0.13500
C607        C  0.40338393  0.29702439  0.06467417    -0.16100
C608        C  0.44006288  0.33146099  0.05733683    -0.31300
H609        H  0.37735986  0.28330504  0.05275584     0.12900
H610        H  0.46494393  0.34897302  0.06954803     0.13500
C611        C  0.41607270  0.23452994  0.20936418    -0.16100
C612        C  0.43443208  0.23728660  0.22983985    -0.31300
H613        H  0.38202064  0.21437518  0.20807983     0.12900
H614        H  0.46799465  0.25911238  0.23210678     0.13500
C615        C  0.37432966  0.05104768  0.21399460    -0.16100
C616        C  0.35859921  0.02919200  0.23390433    -0.31300
H617        H  0.38025342  0.08597899  0.21164729     0.12900
H618        H  0.35559906  0.99570149  0.23730541     0.13500
C619        C  0.45863275  0.09236711  0.05397174    -0.16100
C620        C  0.43704932  0.07200102  0.07313808    -0.31300
H621        H  0.48008018  0.12865617  0.05293309     0.12900
H622        H  0.41408493  0.03601757  0.07261678     0.13500
C623        C  0.19182083  0.06284792  0.21359577    -0.16100
C624        C  0.18609137  0.07693250  0.23364477    -0.31300
H625        H  0.20614644  0.04076989  0.21312162     0.12900
H626        H  0.16951627  0.09664267  0.23466748     0.13500
C627        C  0.06938277  0.49827018  0.08510673    -0.16100
C628        C  0.07384453  0.48581595  0.06434017    -0.31300
H629        H  0.04729656  0.51089460  0.08815968     0.12900
H630        H  0.03856236  0.98454739  0.08749779     0.13500
C631        C  0.11809379  0.00900094  0.09542505     0.03500
C632        C  0.12129608  0.96892247  0.09695658    -0.12700
C633        C  0.14044528  0.96052088  0.11561481     0.01000
C634        C  0.15549100  0.99203464  0.13317428    -0.11200
C635        C  0.14212382  0.52803837  0.13635283     0.03500
C636        C  0.11453675  0.53005607  0.11979079    -0.10600
H637        H  0.11052135  0.94536023  0.08318767     0.09100
H638        H  0.17142608  0.98566397  0.14728030     0.06600
H639        H  0.10808537  0.55849625  0.11912241     0.06400
C640        C  0.18578789  0.58113855  0.19321936     0.03500
C641        C  0.16655611  0.54930032  0.17632106    -0.12700
C642        C  0.16218410  0.56302167  0.15423018     0.01000
C643        C  0.17845213  0.60989514  0.14946006    -0.11200
C644        C  0.19815486  0.64273151  0.16642777     0.03500
C645        C  0.20159589  0.62784433  0.18828589    -0.10600
H646        H  0.15479820  0.51351983  0.18057938     0.09100
H647        H  0.17581137  0.62077405  0.13239840     0.06600
H648        H  0.21679047  0.65241137  0.20137310     0.06400
C649        C  0.44617187  0.59458498  0.09566012     0.03500
C650        C  0.48198440  0.63668577  0.09989838    -0.12700
C651        C  0.49449453  0.65026128  0.12214885     0.01000
C652        C  0.47043128  0.62053412  0.14032499    -0.11200
C653        C  0.43327719  0.57853839  0.13650437     0.03500
C654        C  0.42130069  0.56753365  0.11391036    -0.10600
H655        H  0.00263568  0.65913775  0.08670283     0.09100
H656        H  0.48190858  0.62954901  0.15736206     0.06600
H657        H  0.39292237  0.53648634  0.11017207     0.06400
C658        C  0.37957288  0.53247060  0.19440349     0.03500
C659        C  0.35820097  0.98249846  0.19100088    -0.12700
C660        C  0.35805432  0.96406267  0.17008581     0.01000
C661        C  0.38567010  0.99321530  0.15290202    -0.11200
C662        C  0.40745681  0.54536285  0.15559991     0.03500
C663        C  0.40586359  0.56166908  0.17702002    -0.10600
H664        H  0.33458871  0.96119286  0.20336636     0.09100
H665        H  0.38443591  0.97886350  0.13662225     0.06600
H666        H  0.42327326  0.59785727  0.17993430     0.06400
C667        C  0.44426590  0.76826584  0.19442730     0.03500
C668        C  0.42056628  0.77148808  0.17605393    -0.12700
C669        C  0.43944536  0.79099705  0.15496249     0.01000
C670        C  0.48297366  0.80601689  0.15284295    -0.11200
C671        C  0.00253790  0.79168022  0.16417060     0.03500
C672        C  0.48704500  0.78171271  0.19137046    -0.10600
H673        H  0.38697331  0.75740131  0.17835738     0.09100
H674        H  0.99135809  0.80841808  0.13016632     0.06600
H675        H  0.00364742  0.77219048  0.19903699     0.06400
C676        C  0.40599307  0.80557950  0.09449770     0.03500
C677        C  0.42894356  0.80069501  0.11268077    -0.12700
C678        C  0.41384691  0.79430092  0.13517697     0.01000
C679        C  0.37445517  0.79260852  0.13861877    -0.11200
C680        C  0.35019050  0.79576003  0.12045158     0.03500
C681        C  0.36621960  0.80181480  0.09843437    -0.10600
H682        H  0.45893157  0.80273478  0.10884442     0.09100
H683        H  0.36285140  0.79031387  0.15556262     0.06600
H684        H  0.34926632  0.80722895  0.08451890     0.06400
Zr685      Zr  0.24640355  0.80487647  0.16536981     2.17500
O686        O  0.27370048  0.80827124  0.20346470    -0.51000
O687        O  0.30148465  0.79924294  0.14553700    -0.74200
O688        O  0.23046647  0.72443392  0.17459618    -0.81000
O689        O  0.29459668  0.93328105  0.15123401    -0.82700
O690        O  0.19462925  0.69837509  0.14319039    -0.78300
O691        O  0.30790534  0.88244787  0.17134178    -0.90000
O692        O  0.28647015  0.79542170  0.10800744    -0.75900
O693        O  0.20935203  0.75569901  0.13544564    -0.85400
O694        O  0.25534043  0.84801372  0.13102584    -0.85100
O695        O  0.17295669  0.76337307  0.17739703    -0.71900
O696        O  0.21507163  0.85281939  0.17226436    -0.84000
Zr697      Zr  0.11513923  0.80457584  0.11933328     2.26400
Zr698      Zr  0.13743679  0.71439067  0.14653684     2.06300
Zr699      Zr  0.22392895  0.89473151  0.13741984     2.10000
Zr700      Zr  0.21961878  0.79729550  0.10159071     1.78800
O701        O  0.23920960  0.96038852  0.16010206    -0.92800
O702        O  0.20938131  0.72626709  0.08582507    -0.40600
O703        O  0.18796027  0.84538013  0.10711624    -0.77300
O704        O  0.14539873  0.75592960  0.11164624    -0.95900
O705        O  0.10660843  0.76124863  0.15318149    -0.89200
O706        O  0.15183555  0.85502424  0.14909228    -0.92100
C707        C  0.30996332  0.79656964  0.12486200     1.01700
C708        C  0.31825973  0.92327636  0.16361911     1.14600
C709        C  0.20972132  0.69108288  0.16125096     1.05400
O710        O  0.10861746  0.64146799  0.12814483    -0.94200
O711        O  0.06321462  0.67838448  0.13860735    -0.90000
O712        O  0.05185418  0.72791997  0.11626037    -0.83100
C713        C  0.03954708  0.68841688  0.12619242     1.12000
O714        O  0.16757828  0.82266476  0.22127486    -0.96200
Zr715      Zr  0.14145773  0.81159633  0.18264666     1.88900
O716        O  0.05655223  0.80303148  0.13872020    -0.72900
O717        O  0.11561945  0.66608672  0.18067796    -0.52100
O718        O  0.09327377  0.75067609  0.20807626    -0.96800
O719        O  0.14822890  0.88155172  0.19816234    -0.54000
O720        O  0.07009430  0.80200684  0.17623661    -0.73400
C721        C  0.04611465  0.80014901  0.15950279     0.99000
O722        O  0.09088999  0.80278314  0.08068334    -0.62200
O723        O  0.26533189  0.94169559  0.10537225    -0.57000
O724        O  0.12100064  0.88108968  0.11237291    -0.93700
O725        O  0.18675777  0.93305168  0.12368160    -0.92100
O726        O  0.27051132  0.85880142  0.07729371    -0.92500
O727        O  0.19497641  0.78998750  0.06274738    -0.91300
C728        C  0.14978591  0.92220114  0.11655326     1.17800
H729        H  0.28475637  0.86628659  0.12711500     0.33700
H730        H  0.12971851  0.73519585  0.09986782     0.44600
H731        H  0.14049219  0.87512582  0.15222773     0.38100
H732        H  0.17060936  0.74604527  0.19113379     0.34600
H733        H  0.23258810  0.73565701  0.07474742     0.26400
H734        H  0.08692490  0.66128727  0.18387238     0.32300
H735        H  0.07968939  0.76471692  0.21696610     0.38200
H736        H  0.29787081  0.87036822  0.08519182     0.32700
H737        H  0.29056686  0.93738344  0.10496433     0.31600
H738        H  0.25269131  0.98700339  0.14951461     0.33300
H739        H  0.12119070  0.88119077  0.19476796     0.32200
H740        H  0.19030302  0.81654105  0.05990189     0.36200
H741        H  0.07178437  0.81623668  0.08130725     0.29000
H742        H  0.27907676  0.78196876  0.20504589     0.33200
H743        H  0.17405090  0.79746424  0.22449219     0.36000
H744        H  0.24902129  0.92629545  0.09183478     0.28700
H745        H  0.11601204  0.82588154  0.07234726     0.41500
H746        H  0.10855553  0.64899243  0.11185778     0.31600
H747        H  0.21663996  0.71071940  0.09819641     0.39200
H748        H  0.16918749  0.90658174  0.18844036     0.31000
H749        H  0.11115896  0.63606337  0.17579415     0.31100
H750        H  0.24919703  0.80030872  0.21343067     0.31400
Zr751      Zr  0.31108252  0.62635965  0.35609108     2.17500
O752        O  0.31187499  0.59832178  0.39455317    -0.51000
O753        O  0.28682258  0.67222806  0.37658132    -0.74200
O754        O  0.37933420  0.66333962  0.37430161    -0.81000
O755        O  0.19809361  0.54304556  0.34948032    -0.82700
O756        O  0.43333362  0.69523062  0.34910448    -0.78300
O757        O  0.25597088  0.55308776  0.36847158    -0.90000
O758        O  0.28620707  0.72450763  0.35143864    -0.75900
O759        O  0.34830912  0.69656990  0.33552210    -0.85400
O760        O  0.25799862  0.63349929  0.33484342    -0.85100
O761        O  0.36239449  0.61799254  0.33402777    -0.71900
O762        O  0.27888507  0.56017381  0.33322512    -0.84000
Zr763      Zr  0.31492252  0.63005019  0.26878243     2.26400
Zr764      Zr  0.39879094  0.68861108  0.31263747     2.06300
Zr765      Zr  0.22682880  0.56856117  0.31130343     2.10000
Zr766      Zr  0.29534191  0.70318025  0.31397294     1.78800
O767        O  0.19029834  0.48832083  0.30197272    -0.92800
O768        O  0.34502291  0.78437155  0.31519992    -0.40600
O769        O  0.26331514  0.63877848  0.29025608    -0.77300
O770        O  0.34619032  0.69682110  0.29121022    -0.95900
O771        O  0.36766384  0.62268537  0.28978326    -0.89200
O772        O  0.27708269  0.55937560  0.28899275    -0.92100
C773        C  0.28222285  0.70723215  0.37145450     1.01700
C774        C  0.21630066  0.53856907  0.36736517     1.14600
C775        C  0.41869697  0.68434578  0.36931894     1.05400
O776        O  0.43795549  0.76926558  0.32095360    -0.94200
O777        O  0.42783985  0.72479982  0.27537054    -0.90000
O778        O  0.37644490  0.68674095  0.24976310    -0.83100
C779        C  0.41327967  0.71777307  0.25504463     1.12000
O780        O  0.33149592  0.51025039  0.34433478    -0.96200
Zr781      Zr  0.32964628  0.55284536  0.31061691     1.88900
O782        O  0.33761427  0.58378532  0.24826902    -0.72900
O783        O  0.46278991  0.68362408  0.30585974    -0.52100
O784        O  0.39471170  0.54840957  0.31450975    -0.96800
O785        O  0.27896060  0.47295317  0.30542215    -0.54000
O786        O  0.34410383  0.53483419  0.27329388    -0.73400
C787        C  0.34585818  0.55128502  0.25324276     0.99000
O788        O  0.30726438  0.66861673  0.23484815    -0.62200
O789        O  0.15637204  0.55807040  0.31839345    -0.57000
O790        O  0.24918254  0.58381901  0.25035111    -0.93700
O791        O  0.19959105  0.57905978  0.27472360    -0.92100
O792        O  0.22968363  0.70692632  0.31363862    -0.92500
O793        O  0.28559489  0.73718599  0.27893340    -0.91300
C794        C  0.21293891  0.57958403  0.25465255     1.17800
H795        H  0.23648473  0.63371606  0.34427805     0.33700
H796        H  0.35871205  0.72410308  0.28175828     0.44600
H797        H  0.26347586  0.53419445  0.27893679     0.38100
H798        H  0.38144586  0.61277393  0.34366818     0.34600
H799        H  0.36615835  0.78678167  0.32660733     0.26400
H800        H  0.45927471  0.67104156  0.29059378     0.32300
H801        H  0.41672109  0.58009349  0.31714229     0.38200
H802        H  0.20736585  0.67492489  0.31579280     0.32700
H803        H  0.15347856  0.58048858  0.30827431     0.31600
H804        H  0.17265180  0.48680704  0.28877501     0.33300
H805        H  0.27422987  0.96669802  0.29202582     0.32200
H806        H  0.28620008  0.76586224  0.28320588     0.36200
H807        H  0.30123839  0.64716954  0.22244667     0.29000
H808        H  0.32331583  0.62512792  0.40430947     0.33200
H809        H  0.31468586  0.51568135  0.35572568     0.36000
H810        H  0.13692285  0.52804454  0.31214965     0.28700
H811        H  0.28086356  0.67018170  0.23696663     0.41500
H812        H  0.42855347  0.77158462  0.33626281     0.31600
H813        H  0.36044408  0.79200180  0.30065348     0.39200
H814        H  0.29445686  0.45605207  0.30935709     0.31000
H815        H  0.48523681  0.71566799  0.30404221     0.31100
H816        H  0.33337189  0.58796184  0.39467706     0.31400
C817        C  0.22147830  0.93084515  0.52374926     0.03500
C818        C  0.20197772  0.94454468  0.50685088    -0.12700
C819        C  0.22221507  0.96472710  0.48623397     0.01000
C820        C  0.26285769  0.96828134  0.48292203    -0.11200
C821        C  0.28160696  0.95107066  0.49914135     0.03500
C822        C  0.26058049  0.93294252  0.51967783    -0.10600
H823        H  0.17079762  0.93954772  0.51035148     0.09100
H824        H  0.27908685  0.48254562  0.46654836     0.06600
H825        H  0.27480234  0.92106966  0.53257015     0.06400
C826        C  0.19751340  0.00741827  0.42962668     0.03500
C827        C  0.21622190  0.99205850  0.44624487    -0.12700
C828        C  0.20092985  0.98163033  0.46860038     0.01000
C829        C  0.16455516  0.98648222  0.47337567    -0.11200
C830        C  0.14508060  0.00166664  0.45661820     0.03500
C831        C  0.16268528  0.01311514  0.43504534    -0.10600
H832        H  0.24238791  0.98736389  0.44111614     0.09100
H833        H  0.15070715  0.97869441  0.49002833     0.06600
H834        H  0.14831005  0.02515702  0.42235545     0.06400
C835        C  0.15495134  0.73919834  0.51605235     0.03500
C836        C  0.12398584  0.69349266  0.51517319    -0.12700
C837        C  0.12507235  0.66568986  0.49859501     0.01000
C838        C  0.15841259  0.68336971  0.48284164    -0.11200
C839        C  0.18896428  0.72971888  0.48213810     0.03500
C840        C  0.18622193  0.75783933  0.49900446    -0.10600
H841        H  0.09812315  0.67986326  0.52718985     0.09100
H842        H  0.15985010  0.66026672  0.47101550     0.06600
H843        H  0.20818711  0.79383120  0.49937757     0.06400
C844        C  0.25422429  0.73987620  0.42848089     0.03500
C845        C  0.22070431  0.72346159  0.44424852    -0.12700
C846        C  0.22351335  0.74755481  0.46425531     0.01000
C847        C  0.26110120  0.78825765  0.46764546    -0.11200
C848        C  0.29426088  0.80526941  0.45183771     0.03500
C849        C  0.29037492  0.78132144  0.43233355    -0.10600
H850        H  0.19278306  0.69204497  0.44051022     0.09100
H851        H  0.26564668  0.80650704  0.48302245     0.06600
H852        H  0.31700902  0.79351216  0.42091001     0.06400
C853        C  0.45058122  0.73975793  0.53250249     0.03500
C854        C  0.45470296  0.71775161  0.51363520    -0.12700
C855        C  0.45069354  0.73136934  0.49143222     0.01000
C856        C  0.43805686  0.76552917  0.48900877    -0.11200
C857        C  0.43070550  0.78607705  0.50787275     0.03500
C858        C  0.43702917  0.77267751  0.52962339    -0.10600
H859        H  0.46399577  0.69186505  0.51671097     0.09100
H860        H  0.43792858  0.78008124  0.47249156     0.06600
H861        H  0.43732334  0.79240783  0.54385682     0.06400
C862        C  0.45817361  0.69816223  0.43053606     0.03500
C863        C  0.48085501  0.67385684  0.43331840    -0.12700
C864        C  0.99251543  0.67097150  0.45041109     0.01000
C865        C  0.98461503  0.69011902  0.46969917    -0.11200
C866        C  0.96241032  0.71569800  0.46837575     0.03500
C867        C  0.44907577  0.71661966  0.44936607    -0.10600
H868        H  0.48391674  0.65556942  0.41931186     0.09100
H869        H  0.99246132  0.68051328  0.48585163     0.06600
H870        H  0.42903932  0.73209043  0.44681509     0.06400
Zr871      Zr  0.39764625  0.91290967  0.49887102     2.17500
O872        O  0.36866055  0.88449127  0.53642973    -0.51000
O873        O  0.34143018  0.85634360  0.47759936    -0.74200
O874        O  0.33537448  0.92653685  0.50310152    -0.81000
O875        O  0.47287635  0.86062804  0.49707322    -0.82700
O876        O  0.34960680  0.99198605  0.48359159    -0.78300
O877        O  0.40575838  0.84280731  0.50680105    -0.90000
O878        O  0.36010071  0.86767123  0.44050372    -0.75900
O879        O  0.39123875  0.94869696  0.46479086    -0.85400
O880        O  0.43636044  0.90154819  0.46970877    -0.85100
O881        O  0.42686127  0.99273130  0.50666840    -0.71900
O882        O  0.46970656  0.94748750  0.51178419    -0.84000
Zr883      Zr  0.02971888  0.54585563  0.45629382     2.26400
Zr884      Zr  0.42519773  0.53014502  0.47433397     2.06300
Zr885      Zr  0.50780999  0.93626193  0.48209615     2.10000
Zr886      Zr  0.42859718  0.93579372  0.43584158     1.78800
O887        O  0.04123807  0.91529037  0.51256792    -0.92800
O888        O  0.38048631  0.94902178  0.41151580    -0.40600
O889        O  0.50154678  0.96968927  0.44690793    -0.77300
O890        O  0.46023276  0.51845644  0.44282840    -0.95900
O891        O  0.49643315  0.55806754  0.48528446    -0.89200
O892        O  0.03614471  0.01014122  0.48814058    -0.92100
C893        C  0.33447984  0.84590845  0.45685009     1.01700
C894        C  0.43603724  0.83269030  0.50415260     1.14600
C895        C  0.32480713  0.95637005  0.49513272     1.05400
O896        O  0.40464641  0.56340048  0.44267191    -0.94200
O897        O  0.48426573  0.60481126  0.47763098    -0.90000
O898        O  0.01969284  0.61555247  0.44985926    -0.83100
C899        C  0.50176766  0.62795137  0.45983798     1.12000
O900        O  0.47553486  0.00172931  0.55654629    -0.96200
Zr901      Zr  0.50180684  0.52181250  0.51853040     1.88900
O902        O  0.08496937  0.60535840  0.47566339    -0.72900
O903        O  0.40523013  0.57542969  0.49786967    -0.52100
O904        O  0.48403398  0.57435601  0.53712741    -0.96800
O905        O  0.04949343  0.01396637  0.53823476    -0.54000
O906        O  0.06278149  0.59914542  0.51202438    -0.73400
C907        C  0.08885619  0.62009488  0.49556702     0.99000
O908        O  0.05505635  0.57259039  0.41799306    -0.62200
O909        O  0.51875213  0.88743063  0.45627738    -0.57000
O910        O  0.09208460  0.53054958  0.45324437    -0.93700
O911        O  0.07841001  0.96527425  0.47345647    -0.92100
O912        O  0.44186404  0.87780213  0.41956203    -0.92500
O913        O  0.45255572  0.95286687  0.39675340    -0.91300
C914        C  0.10297244  0.99864765  0.46064084     1.17800
H915        H  0.42579941  0.86972775  0.46673853     0.33700
H916        H  0.45942909  0.53571327  0.42964021     0.44600
H917        H  0.06626497  0.52520373  0.49517839     0.38100
H918        H  0.41038675  0.99694415  0.51815563     0.34600
H919        H  0.36707945  0.92195350  0.40194777     0.26400
H920        H  0.38156423  0.57689861  0.49001939     0.32300
H921        H  0.00120124  0.60694047  0.53230183     0.38200
H922        H  0.41826784  0.84828356  0.42481562     0.32700
H923        H  0.02828815  0.86832548  0.46347993     0.31600
H924        H  0.06193732  0.94558006  0.51803781     0.33300
H925        H  0.06286448  0.54492048  0.55290633     0.32200
H926        H  0.47205679  0.98607293  0.39617794     0.36200
H927        H  0.08451393  0.57808905  0.41791548     0.29000
H928        H  0.38934983  0.87717706  0.54397900     0.33200
H929        H  0.46088805  0.46385805  0.55666991     0.36000
H930        H  0.53298109  0.87357224  0.46543298     0.28700
H931        H  0.03946701  0.54539091  0.40870374     0.41500
H932        H  0.36860931  0.03073233  0.43653095     0.31600
H933        H  0.35762277  0.94577918  0.42170240     0.39200
H934        H  0.05967039  0.03817875  0.54951797     0.31000
H935        H  0.39263828  0.55653361  0.51170743     0.31100
H936        H  0.34376732  0.85449748  0.53385484     0.31400
C937        C  0.25102835  0.86416739  0.75428459     0.03500
C938        C  0.23559033  0.81804121  0.76047448    -0.12700
C939        C  0.24005081  0.80507061  0.78238351     0.01000
C940        C  0.25867758  0.83873024  0.79886884    -0.11200
C941        C  0.27569314  0.88539625  0.79340713     0.03500
C942        C  0.27070181  0.89790596  0.77079951    -0.10600
H943        H  0.22317717  0.79230239  0.74769938     0.09100
H944        H  0.26273443  0.82832399  0.81580965     0.06600
H945        H  0.28389857  0.93349809  0.76577922     0.06400
C946        C  0.34300381  0.94620813  0.84580916     0.03500
C947        C  0.33761409  0.98508312  0.84551873    -0.12700
C948        C  0.31191531  0.99073731  0.82952576     0.01000
C949        C  0.29331259  0.95874378  0.81236899    -0.11200
C950        C  0.29897097  0.92021252  0.81132351     0.03500
C951        C  0.32434067  0.91422557  0.82837763    -0.10600
H952        H  0.33554551  0.49716039  0.86364361     0.09100
H953        H  0.27297308  0.96314707  0.80011864     0.06600
H954        H  0.32890137  0.88453170  0.82843421     0.06400
C955        C  0.05341019  0.92500207  0.76601523     0.03500
C956        C  0.07939422  0.97076892  0.77134788    -0.12700
C957        C  0.08497615  0.98441045  0.79379883     0.01000
C958        C  0.06051171  0.95181431  0.81090727    -0.11200
C959        C  0.03241302  0.90534493  0.80605269     0.03500
C960        C  0.03002453  0.89286819  0.78326397    -0.10600
H961        H  0.09918773  0.99462170  0.75828405     0.09100
H962        H  0.06504525  0.96308261  0.82808839     0.06600
H963        H  0.01104440  0.85770163  0.77878163     0.06400
C964        C  0.49136387  0.84655325  0.86156089     0.03500
C965        C  0.45919917  0.80334874  0.85574120    -0.12700
C966        C  0.44832747  0.79309086  0.83316008     0.01000
C967        C  0.47174278  0.82640747  0.81606046    -0.11200
C968        C  0.00781145  0.86925443  0.82449860     0.03500
C969        C  0.01983088  0.87617406  0.84746803    -0.10600
H970        H  0.43954472  0.77909500  0.86861232     0.09100
H971        H  0.46068997  0.81911774  0.79889322     0.06600
H972        H  0.04692046  0.90738357  0.85237792     0.06400
C973        C  0.03784348  0.63479540  0.86382295     0.03500
C974        C  0.07825801  0.64046481  0.85980918    -0.12700
C975        C  0.09440112  0.64831650  0.83777290     0.01000
C976        C  0.06953388  0.65144575  0.81978143    -0.11200
C977        C  0.02862220  0.64626412  0.82331506     0.03500
C978        C  0.01399639  0.63838727  0.84586601    -0.10600
H979        H  0.09576093  0.63537857  0.87352801     0.09100
H980        H  0.08241971  0.65680260  0.80301450     0.06600
H981        H  0.98327816  0.63344721  0.85022170     0.06400
C982        C  0.49365484  0.66665143  0.76374451     0.03500
C983        C  0.51784096  0.66466472  0.78207051    -0.12700
C984        C  0.49930980  0.64506167  0.80314889     0.01000
C985        C  0.45542166  0.62823978  0.80527780    -0.11200
C986        C  0.43161442  0.63409734  0.78775716     0.03500
C987        C  0.45058852  0.65177547  0.76678322    -0.10600
H988        H  0.04713819  0.66490023  0.77707404     0.09100
H989        H  0.43925508  0.61177947  0.82079289     0.06600
H990        H  0.43255881  0.65731703  0.75354157     0.06400
Zr991      Zr  0.19767924  0.64233523  0.79134670     2.17500
O992        O  0.16750281  0.64334621  0.75452168    -0.51000
O993        O  0.14269669  0.64572923  0.81221655    -0.74200
O994        O  0.13798685  0.56377360  0.78574196    -0.81000
O995        O  0.27760650  0.77036823  0.79417861    -0.82700
O996        O  0.14200954  0.52541301  0.81674316    -0.78300
O997        O  0.21092529  0.72219602  0.78247377    -0.90000
O998        O  0.16007350  0.65143216  0.84941098    -0.75900
O999        O  0.18893861  0.60025905  0.82591185    -0.85400
O1000       O  0.23824310  0.69314925  0.82004164    -0.85100
O1001       O  0.22380824  0.58962243  0.78381243    -0.71900
O1002       O  0.26952928  0.67766285  0.77786888    -0.84000
Zr1003     Zr  0.32865482  0.63724291  0.83451510     2.26400
Zr1004     Zr  0.21604925  0.54941819  0.81918979     2.06300
Zr1005     Zr  0.30963737  0.72784158  0.80721998     2.10000
Zr1006     Zr  0.22845662  0.65161535  0.85417515     1.78800
O1007       O  0.34300737  0.77354422  0.77324773    -0.92800
O1008       O  0.18251601  0.59224702  0.88103953    -0.40600
O1009       O  0.30148010  0.68802894  0.84247257    -0.77300
O1010       O  0.25656507  0.60014284  0.84833856    -0.95900
O1011       O  0.28681866  0.58571273  0.80659001    -0.89200
O1012       O  0.33671367  0.67798852  0.79975391    -0.92100
C1013       C  0.13521609  0.64889446  0.83296192     1.01700
C1014       C  0.24202825  0.76250203  0.78632785     1.14600
C1015       C  0.12331156  0.52753117  0.79875042     1.05400
O1016       O  0.18611913  0.49527091  0.85081807    -0.94200
O1017       O  0.25712379  0.51079295  0.82467998    -0.90000
O1018       O  0.32166443  0.56002448  0.83860998    -0.83100
C1019       C  0.29379696  0.52024527  0.83202942     1.12000
O1020       O  0.26627588  0.60751640  0.73421331    -0.96200
Zr1021     Zr  0.29645456  0.62532837  0.77195121     1.88900
O1022       O  0.38238120  0.63192912  0.81368986    -0.72900
O1023       O  0.18668157  0.48715810  0.79280207    -0.52100
O1024       O  0.28711367  0.55171020  0.76041807    -0.96800
O1025       O  0.34004625  0.68273450  0.74373349    -0.54000
O1026       O  0.36518046  0.62749523  0.77641980    -0.73400
C1027       C  0.38985594  0.62974136  0.79283212     0.99000
O1028       O  0.35198431  0.63428933  0.87293794    -0.62200
O1029       O  0.32747178  0.78933386  0.83338740    -0.57000
O1030       O  0.39282268  0.71412260  0.83788650    -0.93700
O1031       O  0.38347391  0.76450848  0.81514123    -0.92100
O1032       O  0.24814519  0.72794065  0.86674370    -0.92500
O1033       O  0.25201600  0.66370797  0.89331201    -0.91300
C1034       C  0.40601993  0.75412177  0.82818832     1.17800
H1035       H  0.22896452  0.71513304  0.82300513     0.33700
H1036       H  0.25450759  0.58302972  0.86213290     0.44600
H1037       H  0.36565479  0.69491223  0.79479601     0.38100
H1038       H  0.20664894  0.56864644  0.77245447     0.34600
H1039       H  0.16068262  0.60061534  0.88514033     0.26400
H1040       H  0.16976964  0.95985686  0.80903326     0.32300
H1041       H  0.29858030  0.54077039  0.77297292     0.38200
H1042       H  0.22139862  0.72637783  0.87166967     0.32700
H1043       H  0.34128417  0.78255614  0.84636141     0.31600
H1044       H  0.37166860  0.79650483  0.77779216     0.33300
H1045       H  0.35721350  0.67033853  0.73695814     0.32200
H1046       H  0.23163319  0.67014800  0.90133173     0.36200
H1047       H  0.38289349  0.65431987  0.87254680     0.29000
H1048       H  0.13679453  0.62948984  0.75731872     0.33200
H1049       H  0.23969245  0.57846270  0.73599743     0.36000
H1050       H  0.35024579  0.81682797  0.82586383     0.28700
H1051       H  0.34105909  0.65110646  0.88174932     0.41500
H1052       H  0.16316644  0.46766876  0.84408217     0.31600
H1053       H  0.16735359  0.56472679  0.87191945     0.39200
H1054       H  0.36045036  0.70878821  0.75255535     0.31000
H1055       H  0.18440370  0.46033452  0.80149912     0.31100
H1056       H  0.17084007  0.62042897  0.74585123     0.31400
Zr1057     Zr  0.47884216  0.97651155  0.93431294     2.17500
O1058       O  0.02622606  0.97799848  0.90636126    -0.51000
O1059       O  0.42337350  0.95959515  0.90585715    -0.74200
O1060       O  0.47885666  0.91340019  0.91592631    -0.81000
O1061       O  0.01928391  0.59874339  0.94457189    -0.82700
O1062       O  0.45059033  0.85136176  0.93970911    -0.78300
O1063       O  0.99002963  0.54648543  0.91729306    -0.90000
O1064       O  0.36464099  0.94425289  0.92585729    -0.75900
O1065       O  0.41845555  0.91226570  0.94958905    -0.85400
O1066       O  0.44007154  0.50375094  0.94894003    -0.85100
O1067       O  0.50663602  0.94245749  0.96127747    -0.71900
O1068       O  0.02019989  0.52656659  0.96057554    -0.84000
Zr1069     Zr  0.44758623  0.96001137  0.02092111     2.26400
Zr1070     Zr  0.44522420  0.87833559  0.97697122     2.06300
Zr1071     Zr  0.47682502  0.55648161  0.97797555     2.10000
Zr1072     Zr  0.37864133  0.94331847  0.96607660     1.78800
O1073       O  0.04395140  0.63098821  0.98828356    -0.92800
O1074       O  0.32261640  0.86592866  0.96030413    -0.40600
O1075       O  0.41461438  0.49011420  0.99126178    -0.77300
O1076       O  0.40239334  0.90668163  0.99370088    -0.95900
O1077       O  0.48866308  0.92995152  0.00498315    -0.89200
O1078       O  0.01078226  0.52357589  0.00521795    -0.92100
C1079       C  0.38444791  0.95004867  0.90717723     1.01700
C1080       C  0.01294462  0.58719666  0.92381478     1.14600
C1081       C  0.46592294  0.87113741  0.92051483     1.05400
O1082       O  0.38391694  0.80400209  0.97215215    -0.94200
O1083       O  0.42280878  0.83650277  0.01343961    -0.90000
O1084       O  0.43079587  0.88844251  0.03959939    -0.83100
C1085       C  0.42202293  0.84829083  0.03385833     1.12000
O1086       O  0.10661476  0.00761606  0.96761095    -0.96200
Zr1087     Zr  0.04644909  0.99020876  0.99189151     1.88900
O1088       O  0.50132970  0.97389217  0.04906666    -0.72900
O1089       O  0.49194553  0.84502335  0.98148577    -0.52100
O1090       O  0.07509280  0.93944066  0.00222020    -0.96800
O1091       O  0.10399368  0.56276421  0.99894185    -0.54000
O1092       O  0.05965223  0.99999797  0.03242428    -0.73400
C1093       C  0.03737106  0.99159597  0.05047747     0.99000
O1094       O  0.38827501  0.93798698  0.04661928    -0.62200
O1095       O  0.42651695  0.58400307  0.97026523    -0.57000
O1096       O  0.44002188  0.52051774  0.03879173    -0.93700
O1097       O  0.46946301  0.58279589  0.01510360    -0.92100
O1098       O  0.34866480  0.48592664  0.95257238    -0.92500
O1099       O  0.32137950  0.92769543  0.99218367    -0.91300
C1100       C  0.45460149  0.56329928  0.03443799     1.17800
H1101       H  0.43246214  0.51875346  0.93701864     0.33700
H1102       H  0.37839844  0.88203414  0.00115434     0.44600
H1103       H  0.02853382  0.54494878  0.01629802     0.38100
H1104       H  0.02475574  0.92657429  0.95685561     0.34600
H1105       H  0.29776572  0.86943663  0.95597754     0.26400
H1106       H  0.50880712  0.85326031  0.96740656     0.32300
H1107       H  0.09418135  0.95389616  0.01507051     0.38200
H1108       H  0.35744544  0.01476114  0.96946054     0.33300
H1109       H  0.40835009  0.57496989  0.98387901     0.31600
H1110       H  0.06382090  0.62263712  0.99598774     0.33300
H1111       H  0.10816333  0.58488540  0.98646390     0.32200
H1112       H  0.32339979  0.90761689  0.00418644     0.36200
H1113       H  0.36548984  0.90927609  0.04069015     0.29000
H1114       H  0.05141380  0.00723898  0.90974547     0.33200
H1115       H  0.12971753  0.01142142  0.97796320     0.36000
H1116       H  0.44346745  0.61755807  0.97093691     0.28700
H1117       H  0.39666985  0.92890227  0.06103569     0.41500
H1118       H  0.36522296  0.80992435  0.96186000     0.31600
H1119       H  0.33061594  0.85657487  0.94627748     0.39200
H1120       H  0.12944540  0.55883513  0.99862573     0.31000
H1121       H  0.51230816  0.86326610  0.99319362     0.31100
H1122       H  0.01420201  0.98424025  0.89243483     0.31400
Zr1123     Zr  0.10555712  0.79994181  0.68832280     2.17500
O1124       O  0.12870156  0.75700033  0.71332475    -0.51000
O1125       O  0.08165703  0.83331421  0.71643104    -0.74200
O1126       O  0.16919857  0.85054477  0.70738419    -0.81000
O1127       O  0.99424724  0.70091991  0.68298552    -0.82700
O1128       O  0.21607605  0.90149037  0.68190038    -0.78300
O1129       O  0.05000949  0.73521840  0.70671949    -0.90000
O1130       O  0.06068340  0.87968220  0.69813113    -0.75900
O1131       O  0.13055434  0.87428182  0.67256419    -0.85400
O1132       O  0.04451084  0.80052044  0.67330302    -0.85100
O1133       O  0.15792507  0.80875256  0.66144632    -0.71900
O1134       O  0.07599926  0.73915301  0.66245490    -0.84000
Zr1135     Zr  0.09293048  0.82369434  0.60228619     2.26400
Zr1136     Zr  0.18114174  0.88309582  0.64457072     2.06300
Zr1137     Zr  0.01619318  0.74195390  0.64620715     2.10000
Zr1138     Zr  0.06991715  0.87491842  0.65741768     1.78800
O1139       O  0.98365367  0.66170226  0.63710607    -0.92800
O1140       O  0.11408879  0.95429416  0.66704293    -0.40600
O1141       O  0.04116494  0.81675506  0.62953003    -0.77300
O1142       O  0.12044585  0.88477240  0.62865067    -0.95900
O1143       O  0.15294936  0.82267471  0.61834328    -0.89200
O1144       O  0.06718450  0.74924922  0.61852719    -0.92100
C1145       C  0.06710514  0.86149456  0.71619794     1.01700
C1146       C  0.01245762  0.70481170  0.70227020     1.14600
C1147       C  0.20495622  0.88434122  0.70209225     1.05400
O1148       O  0.20498857  0.96463511  0.64373051    -0.94200
O1149       O  0.20761291  0.90580247  0.60558105    -0.90000
O1150       O  0.15026988  0.88660074  0.58347204    -0.83100
C1151       C  0.19006302  0.90460830  0.58638066     1.12000
O1152       O  0.14617257  0.70614099  0.66249338    -0.96200
Zr1153     Zr  0.12733861  0.74877001  0.63489196     1.88900
O1154       O  0.12006378  0.79042391  0.57495102    -0.72900
O1155       O  0.25274049  0.89414955  0.64305245    -0.52100
O1156       O  0.19573929  0.75252097  0.63001187    -0.96800
O1157       O  0.07922673  0.66870859  0.62823765    -0.54000
O1158       O  0.13967090  0.74504665  0.59525486    -0.73400
C1159       C  0.13528022  0.76272416  0.57663295     0.99000
O1160       O  0.07433122  0.86504126  0.57366169    -0.62200
O1161       O  0.45802066  0.74368104  0.65297603    -0.57000
O1162       O  0.02665657  0.77569174  0.58414305    -0.93700
O1163       O  0.97726257  0.73625485  0.61113164    -0.92100
O1164       O  0.99854223  0.86366584  0.66143888    -0.92500
O1165       O  0.05531687  0.92328806  0.63135919    -0.91300
C1166       C  0.98856210  0.74967757  0.59057182     1.17800
H1167       H  0.02357670  0.79428878  0.68480766     0.33700
H1168       H  0.12899815  0.91350097  0.62068563     0.44600
H1169       H  0.05464373  0.72620689  0.60727639     0.38100
H1170       H  0.18119735  0.80759619  0.66904313     0.34600
H1171       H  0.09416445  0.96393731  0.67294797     0.26400
H1172       H  0.25154469  0.87227846  0.63179700     0.32300
H1173       H  0.21519066  0.77785894  0.63953991     0.38200
H1174       H  0.98326362  0.84619959  0.64809905     0.32700
H1175       H  0.44583112  0.72328690  0.66639266     0.31600
H1176       H  0.46794100  0.65626548  0.64514375     0.33300
H1177       H  0.06249355  0.65703500  0.64232495     0.32200
H1178       H  0.04776477  0.90673871  0.61702601     0.36200
H1179       H  0.07202521  0.84949228  0.55933525     0.29000
H1180       H  0.13134497  0.76993532  0.72844170     0.33200
H1181       H  0.12231122  0.69275116  0.67330727     0.36000
H1182       H  0.92738785  0.70818325  0.64999425     0.28700
H1183       H  0.04522448  0.85849135  0.57721058     0.41500
H1184       H  0.23593459  0.97886049  0.64559146     0.31600
H1185       H  0.13028756  0.95336361  0.68045854     0.39200
H1186       H  0.09730932  0.65396770  0.62811152     0.31000
H1187       H  0.26953403  0.92447868  0.63562970     0.31100
H1188       H  0.15798523  0.76623678  0.70865252     0.31400
C1189       C  0.51592290  0.69012532  0.74265356    -0.16100
C1190       C  0.98880148  0.67439710  0.72151317    -0.31300
H1191       H  0.04380629  0.69178707  0.74045475     0.12900
H1192       H  0.46386276  0.66560634  0.72014658     0.13500
C1193       C  0.01575694  0.61551037  0.88549608    -0.16100
C1194       C  0.03456429  0.62149810  0.90571801    -0.31300
H1195       H  0.98229597  0.59130710  0.88436895     0.12900
H1196       H  0.06709831  0.64734991  0.90802691     0.13500
C1197       C  0.49566818  0.86419532  0.88479562    -0.16100
C1198       C  0.46766940  0.84376702  0.90183512    -0.31300
H1199       H  0.52015199  0.89914776  0.88704344     0.12900
H1200       H  0.44341464  0.80850823  0.90128473     0.13500
C1201       C  0.05757225  0.87286320  0.73861293    -0.16100
C1202       C  0.05499324  0.91084270  0.74257852    -0.31300
H1203       H  0.05678275  0.85115389  0.75282433     0.12900
H1204       H  0.05974622  0.93480632  0.72869009     0.13500
C1205       C  0.36021093  0.94867851  0.88644474    -0.16100
C1206       C  0.36680414  0.93943439  0.86519923    -0.31300
H1207       H  0.33447780  0.95619073  0.88907443     0.12900
H1208       H  0.38950142  0.92769108  0.86208507     0.13500
C1209       C  0.23459540  0.90175620  0.72125465    -0.16100
C1210       C  0.24878446  0.87394346  0.72973371    -0.31300
H1211       H  0.23183356  0.92559578  0.73223389     0.12900
H1212       H  0.24781117  0.84829393  0.71848368     0.13500
C1213       C  0.46501397  0.74586188  0.57426968    -0.16100
C1214       C  0.47264851  0.73720725  0.55333163    -0.31300
H1215       H  0.92759350  0.73868007  0.57603406     0.12900
H1216       H  0.49994659  0.73223033  0.55084320     0.13500
C1217       C  0.15336733  0.76593515  0.53532310    -0.16100
C1218       C  0.14647705  0.74658223  0.55622276    -0.31300
H1219       H  0.15574532  0.79927392  0.53235255     0.12900
H1220       H  0.14773394  0.71486745  0.55854078     0.13500
C1221       C  0.21656942  0.92330321  0.56587187    -0.16100
C1222       C  0.19859468  0.91271668  0.54527287    -0.31300
H1223       H  0.25042231  0.94444427  0.56752734     0.12900
H1224       H  0.16458378  0.89208476  0.54391395     0.13500
C1225       C  0.44828568  0.69435789  0.38842860    -0.16100
C1226       C  0.43558346  0.69693267  0.40934152    -0.31300
H1227       H  0.47919665  0.69748929  0.38558186     0.12900
H1228       H  0.40570638  0.69699288  0.41124374     0.13500
C1229       C  0.27388743  0.73144063  0.38957092    -0.16100
C1230       C  0.25402612  0.71186925  0.40923361    -0.31300
H1231       H  0.28519340  0.76763757  0.38652584     0.12900
H1232       H  0.23921409  0.67510963  0.41164869     0.13500
C1233       C  0.21088841  0.51313885  0.40687543    -0.16100
C1234       C  0.19149194  0.51775907  0.38815054    -0.31300
H1235       H  0.24989318  0.02824623  0.40595798     0.12900
H1236       H  0.15882121  0.51034057  0.38854946     0.13500
C1237       C  0.42760777  0.82492512  0.07259984    -0.16100
C1238       C  0.40809098  0.81378655  0.05246170    -0.31300
H1239       H  0.45877845  0.85447603  0.07344762     0.12900
H1240       H  0.37796591  0.78314094  0.05091265     0.13500
C1241       C  0.42167491  0.74508354  0.21558141    -0.16100
C1242       C  0.43958495  0.74697997  0.23602177    -0.31300
H1243       H  0.38772490  0.72450100  0.21396910     0.12900
H1244       H  0.47292944  0.76934499  0.23872940     0.13500
C1245       C  0.37318532  0.55336304  0.21487838    -0.16100
C1246       C  0.35723158  0.53061160  0.23460628    -0.31300
H1247       H  0.38092375  0.58900100  0.21340383     0.12900
H1248       H  0.35229492  0.49615944  0.23723909     0.13500
C1249       C  0.45711214  0.59219482  0.05358245    -0.16100
C1250       C  0.43691974  0.57287485  0.07318180    -0.31300
H1251       H  0.47845786  0.62849604  0.05210024     0.12900
H1252       H  0.41436592  0.53671490  0.07329879     0.13500
C1253       C  0.19478831  0.56576451  0.21506868    -0.16100
C1254       C  0.18764612  0.57910727  0.23495497    -0.31300
H1255       H  0.21203113  0.54663958  0.21455379     0.12900
H1256       H  0.16841757  0.59592318  0.23587056     0.13500
C1257       C  0.10020727  0.01767440  0.07467948    -0.16100
C1258       C  0.05834369  0.99902785  0.07258439    -0.31300
H1259       H  0.12058555  0.03123911  0.05995821     0.12900
H1260       H  0.09893436  0.47742895  0.06137427     0.13500
C1261       C  0.60407322  0.50241225  0.09924929     0.03500
C1262       C  0.60727589  0.46226536  0.10091412    -0.12700
C1263       C  0.62944281  0.45578384  0.11872626     0.01000
C1264       C  0.64616643  0.48865332  0.13568570    -0.11200
C1265       C  0.65317095  0.03671551  0.13680466     0.03500
C1266       C  0.63320550  0.04448149  0.11762129    -0.10600
H1267       H  0.59522895  0.43787190  0.08752409     0.09100
H1268       H  0.66395511  0.48372771  0.14928764     0.06600
H1269       H  0.63157913  0.07588081  0.11589381     0.06400
C1270       C  0.67729899  0.08615878  0.19638710     0.03500
C1271       C  0.66523379  0.05534771  0.17846534    -0.12700
C1272       C  0.67197759  0.07039160  0.15564711     0.01000
C1273       C  0.69363292  0.11757685  0.15116440    -0.11200
C1274       C  0.70650515  0.14947883  0.16874122     0.03500
C1275       C  0.69906195  0.13333412  0.19137237    -0.10600
H1276       H  0.64587576  0.01927288  0.18228910     0.09100
H1277       H  0.69824671  0.12961510  0.13371203     0.06600
H1278       H  0.70427828  0.15697824  0.20468310     0.06400
C1279       C  0.94543010  0.09092520  0.09536458     0.03500
C1280       C  0.98131047  0.13295408  0.09957719    -0.12700
C1281       C  0.99478220  0.14584075  0.12175775     0.01000
C1282       C  0.97102269  0.11652237  0.13999235    -0.11200
C1283       C  0.93352799  0.07516003  0.13625126     0.03500
C1284       C  0.92115882  0.06354951  0.11374277    -0.10600
H1285       H  0.50230245  0.15536725  0.08667148     0.09100
H1286       H  0.98251964  0.12543223  0.15705108     0.06600
H1287       H  0.89284239  0.03210177  0.11032588     0.06400
C1288       C  0.87366033  0.03502258  0.19250928     0.03500
C1289       C  0.85563874  0.48785790  0.19096378    -0.12700
C1290       C  0.85449056  0.46971719  0.16981990     0.01000
C1291       C  0.88213199  0.49867743  0.15264378    -0.11200
C1292       C  0.90724102  0.04392672  0.15553785     0.03500
C1293       C  0.90143555  0.06269455  0.17527968    -0.10600
H1294       H  0.83210464  0.46674416  0.20340193     0.09100
H1295       H  0.88021405  0.48421264  0.13633442     0.06600
H1296       H  0.91674896  0.09936280  0.17674711     0.06400
C1297       C  0.94127927  0.26788742  0.19141413     0.03500
C1298       C  0.91951504  0.27532784  0.17350450    -0.12700
C1299       C  0.93968375  0.29597921  0.15301725     0.01000
C1300       C  0.98264716  0.30803339  0.15084159    -0.11200
C1301       C  0.50013273  0.28892368  0.16359377     0.03500
C1302       C  0.98339315  0.27822437  0.18857965    -0.10600
H1303       H  0.88614567  0.26334528  0.17562114     0.09100
H1304       H  0.49180783  0.31047418  0.13007783     0.06600
H1305       H  0.49873346  0.26495082  0.19782463     0.06400
C1306       C  0.90508986  0.30768116  0.09311455     0.03500
C1307       C  0.92860426  0.30429202  0.11122426    -0.12700
C1308       C  0.91495654  0.30133805  0.13363816     0.01000
C1309       C  0.87683144  0.30238816  0.13726489    -0.11200
C1310       C  0.85168878  0.30362323  0.11911924     0.03500
C1311       C  0.86620490  0.30619081  0.09703944    -0.10600
H1312       H  0.95769274  0.30415881  0.10739685     0.09100
H1313       H  0.86667525  0.30287541  0.15427023     0.06600
H1314       H  0.84860934  0.31000754  0.08298689     0.06400
Zr1315     Zr  0.74690124  0.30938437  0.16434451     2.17500
O1316       O  0.77412590  0.31565713  0.20260678    -0.51000
O1317       O  0.80250503  0.30565864  0.14422911    -0.74200
O1318       O  0.73482689  0.23131636  0.17542946    -0.81000
O1319       O  0.78956876  0.43731524  0.15196224    -0.82700
O1320       O  0.70003230  0.20167205  0.14405114    -0.78300
O1321       O  0.80684696  0.38770659  0.17022361    -0.90000
O1322       O  0.78794330  0.30304964  0.10665924    -0.75900
O1323       O  0.71236550  0.25963820  0.13405051    -0.85400
O1324       O  0.75415718  0.35254107  0.13018375    -0.85100
O1325       O  0.67375198  0.26337379  0.17581389    -0.71900
O1326       O  0.71216053  0.35361305  0.17174710    -0.84000
Zr1327     Zr  0.61255059  0.30245661  0.11907545     2.26400
Zr1328     Zr  0.64040380  0.21472674  0.14454098     2.06300
Zr1329     Zr  0.71955624  0.39579338  0.13707677     2.10000
Zr1330     Zr  0.71978326  0.30178052  0.10049211     1.78800
O1331       O  0.73786133  0.46654472  0.15590871    -0.92800
O1332       O  0.70891767  0.23058542  0.08459514    -0.40600
O1333       O  0.68486650  0.34669222  0.10643407    -0.77300
O1334       O  0.64599917  0.25744875  0.11039838    -0.95900
O1335       O  0.60599562  0.25793044  0.15224677    -0.89200
O1336       O  0.64793237  0.35222483  0.14928079    -0.92100
C1337       C  0.81138608  0.30408516  0.12351128     1.01700
C1338       C  0.81493537  0.42839409  0.16348802     1.14600
C1339       C  0.71567377  0.19688011  0.16255830     1.05400
O1340       O  0.61726636  0.14854010  0.12105011    -0.94200
O1341       O  0.56550146  0.17521988  0.13799920    -0.90000
O1342       O  0.55135928  0.22389527  0.11654223    -0.83100
C1343       C  0.54060226  0.18432608  0.12607419     1.12000
O1344       O  0.66118637  0.31453924  0.22143961    -0.96200
Zr1345     Zr  0.63885599  0.30759514  0.18218253     1.88900
O1346       O  0.55359826  0.29893687  0.13845190    -0.72900
O1347       O  0.61865517  0.16113885  0.17667567    -0.52100
O1348       O  0.59429672  0.24070104  0.20555295    -0.96800
O1349       O  0.64465426  0.37416630  0.20101694    -0.54000
O1350       O  0.56755796  0.29890091  0.17597365    -0.73400
C1351       C  0.54347291  0.29671364  0.15920197     0.99000
O1352       O  0.58640892  0.29897168  0.08070981    -0.62200
O1353       O  0.75704448  0.43778515  0.10308426    -0.57000
O1354       O  0.61404818  0.37755816  0.11376858    -0.93700
O1355       O  0.67825050  0.43120003  0.12607681    -0.92100
O1356       O  0.76764947  0.36547837  0.07625321    -0.92500
O1357       O  0.69879516  0.29261945  0.06094377    -0.91300
C1358       C  0.64099591  0.41891454  0.11891642     1.17800
H1359       H  0.78335768  0.37221484  0.12622269     0.33700
H1360       H  0.63083949  0.23700986  0.09841874     0.44600
H1361       H  0.63535597  0.37081468  0.15311250     0.38100
H1362       H  0.67198062  0.24554236  0.18928837     0.34600
H1363       H  0.73545383  0.23856226  0.07647257     0.26400
H1364       H  0.59688799  0.16566313  0.18443028     0.32300
H1365       H  0.57029501  0.24519960  0.21007736     0.38200
H1366       H  0.75057446  0.37932123  0.07026716     0.32700
H1367       H  0.73529119  0.43927767  0.09333104     0.31600
H1368       H  0.72590382  0.45692356  0.17129464     0.33300
H1369       H  0.62874220  0.38547390  0.19150865     0.32200
H1370       H  0.66760613  0.27556986  0.06129202     0.36200
H1371       H  0.55578878  0.28780984  0.08256870     0.29000
H1372       H  0.75279946  0.28806345  0.21077225     0.33200
H1373       H  0.68588379  0.30923864  0.22137999     0.36000
H1374       H  0.77471364  0.46942891  0.10801029     0.28700
H1375       H  0.59784563  0.33112319  0.07550928     0.41500
H1376       H  0.62813762  0.16120596  0.10576300     0.31600
H1377       H  0.70891077  0.21150833  0.09769086     0.39200
H1378       H  0.67453350  0.39756811  0.19902720     0.31000
H1379       H  0.60285882  0.13079169  0.16993167     0.31100
H1380       H  0.77097976  0.34084848  0.20904140     0.31400
Zr1381     Zr  0.80531151  0.13558491  0.35345359     2.17500
O1382       O  0.80273966  0.12056914  0.39420240    -0.51000
O1383       O  0.77850009  0.17944476  0.37347657    -0.74200
O1384       O  0.87371337  0.16793976  0.37123066    -0.81000
O1385       O  0.69464227  0.04902653  0.34813171    -0.82700
O1386       O  0.92552391  0.20957807  0.34592160    -0.78300
O1387       O  0.75466033  0.05887830  0.36414710    -0.90000
O1388       O  0.77620738  0.23091936  0.34852878    -0.75900
O1389       O  0.83974334  0.20545341  0.33225826    -0.85400
O1390       O  0.75048623  0.13950365  0.33254687    -0.85100
O1391       O  0.85654242  0.12789425  0.33082554    -0.71900
O1392       O  0.77488943  0.06876456  0.33094465    -0.84000
Zr1393     Zr  0.80275499  0.13631467  0.26401760     2.26400
Zr1394     Zr  0.88949415  0.19743292  0.30887142     2.06300
Zr1395     Zr  0.72089173  0.07356217  0.30965076     2.10000
Zr1396     Zr  0.78463690  0.20853444  0.31100308     1.78800
O1397       O  0.69233168  0.99202557  0.30493510    -0.92800
O1398       O  0.82942424  0.29094545  0.31019333    -0.40600
O1399       O  0.75287772  0.14325271  0.28769835    -0.77300
O1400       O  0.83501326  0.20318581  0.28708583    -0.95900
O1401       O  0.85778313  0.13243187  0.28507819    -0.89200
O1402       O  0.76976457  0.06642722  0.28541207    -0.92100
C1403       C  0.77284203  0.21374606  0.36853503     1.01700
C1404       C  0.71509493  0.04489920  0.36503946     1.14600
C1405       C  0.91252419  0.19365586  0.36609908     1.05400
O1406       O  0.93028412  0.27989045  0.31136114    -0.94200
O1407       O  0.92031061  0.22835622  0.27181500    -0.90000
O1408       O  0.86639707  0.19537411  0.24691475    -0.83100
C1409       C  0.90485515  0.22271345  0.25181433     1.12000
O1410       O  0.82402958  0.01629961  0.33912820    -0.96200
Zr1411     Zr  0.82478080  0.06347150  0.30681350     1.88900
O1412       O  0.82341538  0.08708377  0.24393782    -0.72900
O1413       O  0.95121424  0.18690570  0.30418689    -0.52100
O1414       O  0.89535582  0.07195057  0.31050285    -0.96800
O1415       O  0.78212579  0.98153338  0.30237819    -0.54000
O1416       O  0.83952835  0.04618613  0.26967668    -0.73400
C1417       C  0.83646351  0.05844740  0.24937033     0.99000
O1418       O  0.78993347  0.16008564  0.22668767    -0.62200
O1419       O  0.64912694  0.05989381  0.31574389    -0.57000
O1420       O  0.73353092  0.10583021  0.24493121    -0.93700
O1421       O  0.68721165  0.07193808  0.27382649    -0.92100
O1422       O  0.71286369  0.19718938  0.31041589    -0.92500
O1423       O  0.77554102  0.25109298  0.27933404    -0.91300
C1424       C  0.69579102  0.08403373  0.25295184     1.17800
H1425       H  0.72865452  0.13885402  0.34204246     0.33700
H1426       H  0.84729544  0.23072317  0.27779039     0.44600
H1427       H  0.75576996  0.04089806  0.27560187     0.38100
H1428       H  0.87674016  0.12355563  0.33989582     0.34600
H1429       H  0.81676502  0.30250715  0.32125048     0.26400
H1430       H  0.95299833  0.17118971  0.31825216     0.32300
H1431       H  0.89108761  0.04041584  0.31110327     0.38200
H1432       H  0.69770622  0.17244522  0.29966653     0.32700
H1433       H  0.64737544  0.08512656  0.30751556     0.31600
H1434       H  0.66569855  0.98262556  0.29656803     0.33300
H1435       H  0.77510354  0.47352619  0.29149431     0.32200
H1436       H  0.76067898  0.22803781  0.26775805     0.36200
H1437       H  0.80140620  0.19351157  0.22712146     0.29000
H1438       H  0.81818840  0.15054193  0.40135815     0.33200
H1439       H  0.82262950  0.03267213  0.35246146     0.36000
H1440       H  0.63090962  0.03237675  0.30715034     0.28700
H1441       H  0.80862248  0.15548937  0.21620295     0.41500
H1442       H  0.92201926  0.28678339  0.32600976     0.31600
H1443       H  0.85619432  0.29582513  0.31720725     0.39200
H1444       H  0.76653219  0.97792800  0.28808498     0.31000
H1445       H  0.94299048  0.16360880  0.29251424     0.31100
H1446       H  0.82020075  0.10546024  0.39705892     0.31400
C1447       C  0.72364042  0.43226968  0.52363517     0.03500
C1448       C  0.70583601  0.44930792  0.50731759    -0.12700
C1449       C  0.72301183  0.46362485  0.48549902     0.01000
C1450       C  0.76010776  0.45982330  0.48093786    -0.11200
C1451       C  0.77870088  0.44243269  0.49731981     0.03500
C1452       C  0.75962167  0.42841877  0.51858075    -0.10600
H1453       H  0.67830086  0.45141287  0.51233024     0.09100
H1454       H  0.78063754  0.98568204  0.46397115     0.06600
H1455       H  0.77311990  0.41530269  0.53127897     0.06400
C1456       C  0.70130771  0.51412100  0.43012439     0.03500
C1457       C  0.72006077  0.49806223  0.44645315    -0.12700
C1458       C  0.70243769  0.48260403  0.46819400     0.01000
C1459       C  0.66438985  0.48472847  0.47263964    -0.11200
C1460       C  0.64625003  0.50296598  0.45654516     0.03500
C1461       C  0.66570481  0.51826294  0.43561796    -0.10600
H1462       H  0.74817635  0.49707150  0.44149457     0.09100
H1463       H  0.64770233  0.47191228  0.48838282     0.06600
H1464       H  0.65192625  0.53179421  0.42332801     0.06400
C1465       C  0.65356765  0.24350569  0.51568193     0.03500
C1466       C  0.62250331  0.19780860  0.51492544    -0.12700
C1467       C  0.62311702  0.17014503  0.49814046     0.01000
C1468       C  0.65599703  0.18781967  0.48221324    -0.11200
C1469       C  0.68628865  0.23405377  0.48141865     0.03500
C1470       C  0.68433872  0.26225866  0.49842221    -0.10600
H1471       H  0.59717136  0.18407158  0.52727104     0.09100
H1472       H  0.65748093  0.16483243  0.47029973     0.06600
H1473       H  0.70668388  0.29819810  0.49871543     0.06400
C1474       C  0.74860479  0.24353098  0.42699880     0.03500
C1475       C  0.71529934  0.22834573  0.44279549    -0.12700
C1476       C  0.72019172  0.25126100  0.46343264     0.01000
C1477       C  0.75928104  0.28938303  0.46750259    -0.11200
C1478       C  0.79237102  0.30493601  0.45176135     0.03500
C1479       C  0.78669533  0.28235845  0.43157056    -0.10600
H1480       H  0.68587469  0.19884702  0.43867819     0.09100
H1481       H  0.76482470  0.30649513  0.48334682     0.06600
H1482       H  0.81302054  0.29341087  0.41999941     0.06400
C1483       C  0.95478746  0.23508843  0.53021722     0.03500
C1484       C  0.95878018  0.21450727  0.51070434    -0.12700
C1485       C  0.95200055  0.22781801  0.48885551     0.01000
C1486       C  0.93764723  0.26064257  0.48758469    -0.11200
C1487       C  0.93153828  0.28050317  0.50710318     0.03500
C1488       C  0.93988012  0.26697305  0.52838014    -0.10600
H1489       H  0.96960555  0.18969996  0.51299318     0.09100
H1490       H  0.93542274  0.27495511  0.47134885     0.06600
H1491       H  0.94065533  0.28598636  0.54302914     0.06400
C1492       C  0.95534240  0.19614287  0.42683046     0.03500
C1493       C  0.97882323  0.17250202  0.42865871    -0.12700
C1494       C  0.48833175  0.16638934  0.45266164     0.01000
C1495       C  0.47974104  0.18608348  0.47144831    -0.11200
C1496       C  0.45592820  0.20955550  0.46952418     0.03500
C1497       C  0.94692591  0.21362005  0.44635225    -0.10600
H1498       H  0.98049418  0.15397254  0.41436798     0.09100
H1499       H  0.49009145  0.18037413  0.48779727     0.06600
H1500       H  0.92555227  0.22762743  0.44475605     0.06400
Zr1501     Zr  0.89716456  0.40657878  0.50016654     2.17500
O1502       O  0.86956078  0.37645498  0.53776637    -0.51000
O1503       O  0.84140461  0.35102033  0.47825416    -0.74200
O1504       O  0.83414878  0.42013334  0.50376920    -0.81000
O1505       O  0.97313850  0.35563905  0.49705178    -0.82700
O1506       O  0.84417660  0.47776178  0.47912343    -0.78300
O1507       O  0.90604921  0.33675149  0.50743780    -0.90000
O1508       O  0.85910496  0.36586723  0.44103307    -0.75900
O1509       O  0.89028520  0.44151252  0.46600151    -0.85400
O1510       O  0.93699542  0.39687830  0.47100221    -0.85100
O1511       O  0.92595957  0.48609002  0.50861831    -0.71900
O1512       O  0.96923877  0.44366116  0.51336677    -0.84000
Zr1513     Zr  0.53153434  0.04914716  0.45448421     2.26400
Zr1514     Zr  0.92234280  0.02465190  0.46746388     2.06300
Zr1515     Zr  0.00791528  0.43281945  0.48400143     2.10000
Zr1516     Zr  0.92933880  0.43121854  0.43712460     1.78800
O1517       O  0.54201397  0.41481288  0.51044937    -0.92800
O1518       O  0.88663627  0.44960926  0.41108304    -0.40600
O1519       O  0.00167546  0.46646710  0.44890457    -0.77300
O1520       O  0.96051152  0.01138124  0.43835628    -0.95900
O1521       O  0.99255450  0.05712804  0.48108430    -0.89200
O1522       O  0.53747589  0.50846744  0.48883251    -0.92100
C1523       C  0.83370318  0.34309988  0.45727634     1.01700
C1524       C  0.93647455  0.32709758  0.50416774     1.14600
C1525       C  0.82126532  0.44594769  0.49309158     1.05400
O1526       O  0.90277137  0.04298637  0.43058735    -0.94200
O1527       O  0.97771034  0.10108018  0.47188528    -0.90000
O1528       O  0.51709542  0.11422673  0.44429582    -0.83100
C1529       C  0.99855533  0.12489441  0.45485024     1.12000
O1530       O  0.97814847  0.50261762  0.55849922    -0.96200
Zr1531     Zr  0.99784578  0.02470101  0.51574870     1.88900
O1532       O  0.58306588  0.11015343  0.47510937    -0.72900
O1533       O  0.88877403  0.06957490  0.47804140    -0.52100
O1534       O  0.98042393  0.07886829  0.53295496    -0.96800
O1535       O  0.55317672  0.51393257  0.54261095    -0.54000
O1536       O  0.56195104  0.10310747  0.51174698    -0.73400
C1537       C  0.58723581  0.12452212  0.49513429     0.99000
O1538       O  0.56475022  0.07650681  0.41763932    -0.62200
O1539       O  0.02640025  0.39105027  0.45735414    -0.57000
O1540       O  0.59416878  0.03529201  0.45158712    -0.93700
O1541       O  0.57772307  0.46316729  0.47103515    -0.92100
O1542       O  0.93693744  0.36910044  0.42121706    -0.92500
O1543       O  0.96129875  0.44894618  0.39962870    -0.91300
C1544       C  0.60357870  0.49914469  0.46019963     1.17800
H1545       H  0.92685614  0.36525110  0.46777602     0.33700
H1546       H  0.96093589  0.02670971  0.42421710     0.44600
H1547       H  0.56678277  0.02761489  0.49392856     0.38100
H1548       H  0.90927405  0.48930978  0.52033047     0.34600
H1549       H  0.86646780  0.42017931  0.40453418     0.26400
H1550       H  0.90222219  0.08350561  0.49245721     0.32300
H1551       H  0.48535622  0.10394822  0.52296781     0.38200
H1552       H  0.91477322  0.34081391  0.42849161     0.32700
H1553       H  0.48407569  0.35841731  0.44926922     0.31600
H1554       H  0.56421748  0.44511846  0.51508910     0.33300
H1555       H  0.58121296  0.04448561  0.53378648     0.32200
H1556       H  0.93879752  0.42888894  0.38924869     0.36200
H1557       H  0.54101555  0.06489208  0.40683126     0.29000
H1558       H  0.83854653  0.36183086  0.53613219     0.33200
H1559       H  0.94779100  0.98099283  0.55480603     0.36000
H1560       H  0.03484331  0.41021703  0.44333461     0.28700
H1561       H  0.57546644  0.10984703  0.41751373     0.41500
H1562       H  0.86846796  0.55355482  0.45144786     0.31600
H1563       H  0.86913375  0.45728533  0.42093195     0.39200
H1564       H  0.54270677  0.48069206  0.54414920     0.31000
H1565       H  0.89901250  0.09540772  0.46696023     0.31100
H1566       H  0.87695214  0.40379448  0.54670068     0.31400
C1567       C  0.74769302  0.36456123  0.75826524     0.03500
C1568       C  0.73953451  0.31925283  0.76069990    -0.12700
C1569       C  0.74918210  0.30374427  0.78090305     0.01000
C1570       C  0.76693258  0.33424140  0.79893157    -0.11200
C1571       C  0.77512505  0.38012219  0.79683691     0.03500
C1572       C  0.76565529  0.39453158  0.77596678    -0.10600
H1573       H  0.72560869  0.29611942  0.74690671     0.09100
H1574       H  0.77401504  0.32183084  0.81453400     0.06600
H1575       H  0.77207229  0.42933540  0.77309255     0.06400
C1576       C  0.83353336  0.44085629  0.85087297     0.03500
C1577       C  0.82645532  0.47871161  0.85021807    -0.12700
C1578       C  0.80145807  0.48346174  0.83344232     0.01000
C1579       C  0.78363938  0.44993476  0.81695245    -0.11200
C1580       C  0.79258577  0.41321636  0.81599051     0.03500
C1581       C  0.81803418  0.40923466  0.83332636    -0.10600
H1582       H  0.85054931  0.00443170  0.86031844     0.09100
H1583       H  0.76243719  0.45282362  0.80481835     0.06600
H1584       H  0.82549547  0.38157779  0.83348247     0.06400
C1585       C  0.55633399  0.42763592  0.76496484     0.03500
C1586       C  0.58102395  0.47364718  0.77022242    -0.12700
C1587       C  0.58462381  0.48748704  0.79255897     0.01000
C1588       C  0.55962900  0.45489113  0.80941391    -0.11200
C1589       C  0.53352263  0.40811374  0.80458013     0.03500
C1590       C  0.53262375  0.39533470  0.78203649    -0.10600
H1591       H  0.60126732  0.49763143  0.75733103     0.09100
H1592       H  0.56228334  0.46642508  0.82648096     0.06600
H1593       H  0.51470869  0.35991365  0.77770073     0.06400
C1594       C  0.99449462  0.34798555  0.86355851     0.03500
C1595       C  0.96238262  0.30469227  0.85785873    -0.12700
C1596       C  0.95065675  0.29467052  0.83540491     0.01000
C1597       C  0.97364524  0.32747557  0.81820064    -0.11200
C1598       C  0.50972515  0.37237064  0.82303776     0.03500
C1599       C  0.52274821  0.38029298  0.84572447    -0.10600
H1600       H  0.94294489  0.28031495  0.87072656     0.09100
H1601       H  0.96207708  0.32038211  0.80109042     0.06600
H1602       H  0.55066713  0.41127623  0.85007985     0.06400
C1603       C  0.54110153  0.13680905  0.86313328     0.03500
C1604       C  0.58049268  0.13972887  0.85896189    -0.12700
C1605       C  0.59498876  0.14321128  0.83672166     0.01000
C1606       C  0.56896182  0.14328764  0.81863066    -0.11200
C1607       C  0.52952793  0.14155537  0.82233579     0.03500
C1608       C  0.51710013  0.13963730  0.84503339    -0.10600
H1609       H  0.59851091  0.13625027  0.87288402     0.09100
H1610       H  0.57944993  0.14341330  0.80167512     0.06600
H1611       H  0.48788758  0.13887598  0.84931493     0.06400
C1612       C  0.99170320  0.14566260  0.76216573     0.03500
C1613       C  0.01592088  0.14242835  0.78024685    -0.12700
C1614       C  0.00232608  0.13814291  0.80286310     0.01000
C1615       C  0.96290468  0.13587221  0.80664062    -0.11200
C1616       C  0.93714929  0.13636287  0.78873083     0.03500
C1617       C  0.95176227  0.14112474  0.76655451    -0.10600
H1618       H  0.54811156  0.16147217  0.77638905     0.09100
H1619       H  0.95244131  0.13541701  0.82366164     0.06600
H1620       H  0.93305997  0.14442940  0.75301865     0.06400
Zr1621     Zr  0.70175618  0.14207500  0.79139144     2.17500
O1622       O  0.67674012  0.14196471  0.75305148    -0.51000
O1623       O  0.64489361  0.14345739  0.81123882    -0.74200
O1624       O  0.63938478  0.06462734  0.78728397    -0.81000
O1625       O  0.78344967  0.25994447  0.78117265    -0.82700
O1626       O  0.65000173  0.01510426  0.81014708    -0.78300
O1627       O  0.71308559  0.22115259  0.78487869    -0.90000
O1628       O  0.65956066  0.14438172  0.84867193    -0.75900
O1629       O  0.69319228  0.09661881  0.82452362    -0.85400
O1630       O  0.73822325  0.19209651  0.82162569    -0.85100
O1631       O  0.73224607  0.09399463  0.78279424    -0.71900
O1632       O  0.77468582  0.18367509  0.77974033    -0.84000
Zr1633     Zr  0.83320020  0.13984273  0.83489175     2.26400
Zr1634     Zr  0.72441252  0.05013775  0.81702076     2.06300
Zr1635     Zr  0.81067162  0.23164269  0.81075976     2.10000
Zr1636     Zr  0.72820264  0.14575002  0.85434620     1.78800
O1637       O  0.85483754  0.30892077  0.79592472    -0.92800
O1638       O  0.67755393  0.08112201  0.87716192    -0.40600
O1639       O  0.80223993  0.18695736  0.84438495    -0.77300
O1640       O  0.76067127  0.09852365  0.84764879    -0.95900
O1641       O  0.79575997  0.09089623  0.80508223    -0.89200
O1642       O  0.84188050  0.18549286  0.80168507    -0.92100
C1643       C  0.63583716  0.14381044  0.83203141     1.01700
C1644       C  0.74791243  0.25882693  0.78214575     1.14600
C1645       C  0.62705181  0.02482872  0.79695756     1.05400
O1646       O  0.69636580  0.00229224  0.85101205    -0.94200
O1647       O  0.76811297  0.01420503  0.82114416    -0.90000
O1648       O  0.82939777  0.06356196  0.83794640    -0.83100
C1649       C  0.80403583  0.02420841  0.82977430     1.12000
O1650       O  0.78530266  0.13379129  0.73268868    -0.96200
Zr1651     Zr  0.80565225  0.13603862  0.77212437     1.88900
O1652       O  0.88918920  0.13871319  0.81435648    -0.72900
O1653       O  0.69653964  0.98484041  0.79253151    -0.52100
O1654       O  0.79569294  0.06802580  0.75315100    -0.96800
O1655       O  0.85340472  0.20275047  0.74942936    -0.54000
O1656       O  0.87232505  0.13385292  0.77713234    -0.73400
C1657       C  0.89679269  0.13597054  0.79360856     0.99000
O1658       O  0.85799913  0.13652994  0.87293368    -0.62200
O1659       O  0.80334317  0.27560563  0.84077441    -0.57000
O1660       O  0.89604753  0.21608949  0.83965524    -0.93700
O1661       O  0.88468160  0.26738300  0.81881244    -0.92100
O1662       O  0.73792986  0.21363524  0.87341939    -0.92500
O1663       O  0.75157024  0.15018923  0.89332903    -0.91300
C1664       C  0.90815440  0.25642687  0.83081305     1.17800
H1665       H  0.72771244  0.21308010  0.82457471     0.33700
H1666       H  0.75905911  0.08072775  0.86110695     0.44600
H1667       H  0.87095626  0.20297722  0.79702411     0.38100
H1668       H  0.71639723  0.07387782  0.77083512     0.34600
H1669       H  0.65508269  0.06216999  0.86648897     0.26400
H1670       H  0.70811663  0.49828988  0.78228955     0.32300
H1671       H  0.76477279  0.04881249  0.75196257     0.38200
H1672       H  0.71072322  0.21384811  0.87193647     0.32700
H1673       H  0.81532781  0.26812165  0.85433343     0.31600
H1674       H  0.86840305  0.30539829  0.78224438     0.33300
H1675       H  0.87985145  0.20088032  0.74843537     0.32200
H1676       H  0.78193113  0.15938711  0.89215883     0.36200
H1677       H  0.86018579  0.16382877  0.88020996     0.29000
H1678       H  0.64845008  0.13926383  0.75497656     0.33200
H1679       H  0.75813494  0.13424024  0.73312561     0.36000
H1680       H  0.82414564  0.30755450  0.83695018     0.28700
H1681       H  0.83374786  0.11062048  0.88054071     0.41500
H1682       H  0.70422095  0.97788277  0.84975938     0.31600
H1683       H  0.69187347  0.06296667  0.88101386     0.39200
H1684       H  0.86053237  0.22910880  0.75907539     0.31000
H1685       H  0.69377008  0.95901081  0.80230738     0.31100
H1686       H  0.67118436  0.11225196  0.74711333     0.31400
Zr1687     Zr  0.97024731  0.47363048  0.93477360     2.17500
O1688       O  0.54929844  0.50489357  0.91217657    -0.51000
O1689       O  0.91117428  0.45164806  0.90904286    -0.74200
O1690       O  0.97359569  0.41224716  0.91627882    -0.81000
O1691       O  0.51621909  0.10286085  0.94356351    -0.82700
O1692       O  0.94905881  0.35099918  0.94058486    -0.78300
O1693       O  0.50570587  0.05085204  0.91691587    -0.90000
O1694       O  0.85619715  0.44244520  0.93080365    -0.75900
O1695       O  0.91016983  0.41128949  0.95151298    -0.85400
O1696       O  0.93240108  0.99279419  0.95141819    -0.85100
O1697       O  0.99944542  0.43856899  0.95990511    -0.71900
O1698       O  0.52408595  0.02889178  0.96200018    -0.84000
Zr1699     Zr  0.95145641  0.46108781  0.02242732     2.26400
Zr1700     Zr  0.93863785  0.37658833  0.97712870     2.06300
Zr1701     Zr  0.97545238  0.04800960  0.97845286     2.10000
Zr1702     Zr  0.87494479  0.44507668  0.97055140     1.78800
O1703       O  0.54710991  0.13006730  0.98645027    -0.92800
O1704       O  0.81223155  0.37122053  0.96701927    -0.40600
O1705       O  0.91497258  0.98336433  0.99471339    -0.77300
O1706       O  0.90112456  0.40829601  0.99662523    -0.95900
O1707       O  0.98762441  0.42773129  0.00388861    -0.89200
O1708       O  0.50852954  0.02459662  0.00613233    -0.92100
C1709       C  0.87324745  0.44439705  0.91163422     1.01700
C1710       C  0.51877070  0.09164449  0.92326470     1.14600
C1711       C  0.96384761  0.37086329  0.92133905     1.05400
O1712       O  0.86971696  0.31154855  0.97044124    -0.94200
O1713       O  0.91754251  0.33396594  0.01283394    -0.90000
O1714       O  0.92980629  0.38677393  0.03927424    -0.83100
C1715       C  0.91847251  0.34610494  0.03321781     1.12000
O1716       O  0.61174411  0.52887808  0.97072904    -0.96200
Zr1717     Zr  0.54810481  0.49897011  0.99373314     1.88900
O1718       O  0.01129226  0.48010805  0.04750788    -0.72900
O1719       O  0.97410190  0.33041285  0.98008881    -0.52100
O1720       O  0.58120872  0.45091482  0.99956215    -0.96800
O1721       O  0.60875679  0.07038626  0.99349074    -0.54000
O1722       O  0.55239094  0.49655293  0.03483946    -0.73400
C1723       C  0.52765803  0.48692643  0.05195072     0.99000
O1724       O  0.90278374  0.44481203  0.05387906    -0.62200
O1725       O  0.93244421  0.08473204  0.97050984    -0.57000
O1726       O  0.94379107  0.01621642  0.04055623    -0.93700
O1727       O  0.96840452  0.07598858  0.01522163    -0.92100
O1728       O  0.83672075  0.97147795  0.96321142    -0.92500
O1729       O  0.81866519  0.42871036  0.99746727    -0.91300
C1730       C  0.95600555  0.05813597  0.03512536     1.17800
H1731       H  0.92338126  0.00718250  0.93984870     0.33700
H1732       H  0.87758451  0.38451156  0.00487227     0.44600
H1733       H  0.52411101  0.04566548  0.01780700     0.38100
H1734       H  0.53204442  0.43707288  0.95801072     0.34600
H1735       H  0.79320021  0.37715050  0.95697751     0.26400
H1736       H  0.99342384  0.34264200  0.99307161     0.32300
H1737       H  0.57856227  0.44339809  0.01595346     0.38200
H1738       H  0.84532591  0.50456052  0.95202637     0.33300
H1739       H  0.90520622  0.06472736  0.97810396     0.31600
H1740       H  0.55159185  0.12905851  0.00292549     0.33300
H1741       H  0.60060898  0.08435435  0.00562839     0.32200
H1742       H  0.82633550  0.41680477  0.01121599     0.36200
H1743       H  0.87725836  0.41608887  0.05020764     0.29000
H1744       H  0.53868782  0.49276696  0.89704049     0.33200
H1745       H  0.60339434  0.50958436  0.95730004     0.36000
H1746       H  0.94528676  0.11264909  0.97949600     0.28700
H1747       H  0.91553726  0.43687940  0.06697093     0.41500
H1748       H  0.87187231  0.28485452  0.97652146     0.31600
H1749       H  0.82138069  0.35333266  0.95780385     0.39200
H1750       H  0.60814862  0.08711823  0.97953877     0.31000
H1751       H  0.95218542  0.29985805  0.98535608     0.31100
H1752       H  0.56396726  0.48802997  0.91775771     0.31400
Zr1753     Zr  0.60530735  0.29720833  0.68832945     2.17500
O1754       O  0.62385465  0.25394512  0.71585541    -0.51000
O1755       O  0.58463457  0.33327922  0.71661870    -0.74200
O1756       O  0.67158153  0.34278889  0.70599751    -0.81000
O1757       O  0.49307555  0.20090459  0.68336232    -0.82700
O1758       O  0.72136397  0.38243888  0.67928443    -0.78300
O1759       O  0.55012831  0.23137477  0.70640036    -0.90000
O1760       O  0.56892987  0.38395987  0.69851338    -0.75900
O1761       O  0.63391651  0.37241890  0.67278654    -0.85400
O1762       O  0.54571661  0.30168523  0.67402305    -0.85100
O1763       O  0.65630521  0.30280129  0.66120595    -0.71900
O1764       O  0.57346885  0.23681897  0.66227505    -0.84000
Zr1765     Zr  0.59223902  0.32262941  0.60279303     2.26400
Zr1766     Zr  0.68266738  0.37763347  0.64423901     2.06300
Zr1767     Zr  0.51484841  0.24306151  0.64690473     2.10000
Zr1768     Zr  0.57444356  0.37649583  0.65792362     1.78800
O1769       O  0.47890352  0.16249408  0.63834459    -0.92800
O1770       O  0.61908525  0.45700880  0.66522994    -0.40600
O1771       O  0.54252932  0.31825983  0.63044436    -0.77300
O1772       O  0.62375652  0.38387860  0.62884399    -0.95900
O1773       O  0.65087427  0.31799574  0.61811291    -0.89200
O1774       O  0.56427002  0.24775592  0.61893610    -0.92100
C1775       C  0.57332513  0.36414439  0.71647388     1.01700
C1776       C  0.51193467  0.20247410  0.70217432     1.14600
C1777       C  0.70970618  0.36809781  0.69968841     1.05400
O1778       O  0.70842353  0.45888452  0.64839450    -0.94200
O1779       O  0.70950732  0.40125091  0.60543609    -0.90000
O1780       O  0.65253496  0.37844552  0.58260021    -0.83100
C1781       C  0.69228964  0.39878141  0.58601367     1.12000
O1782       O  0.63510254  0.19681461  0.66279355    -0.96200
Zr1783     Zr  0.62371950  0.24408000  0.63443635     1.88900
O1784       O  0.61761304  0.28911259  0.57494214    -0.72900
O1785       O  0.75482889  0.39378743  0.63683526    -0.52100
O1786       O  0.69417498  0.25187888  0.63272705    -0.96800
O1787       O  0.58141659  0.16591628  0.62242955    -0.54000
O1788       O  0.64089449  0.24657752  0.59497678    -0.73400
C1789       C  0.63549018  0.26393411  0.57649462     0.99000
O1790       O  0.57157638  0.36741739  0.57757722    -0.62200
O1791       O  0.95489972  0.22652945  0.65697514    -0.57000
O1792       O  0.52553179  0.27730593  0.58446476    -0.93700
O1793       O  0.47634336  0.23861944  0.61175388    -0.92100
O1794       O  0.50297909  0.36482902  0.66249453    -0.92500
O1795       O  0.55700065  0.42451695  0.63320207    -0.91300
C1796       C  0.48741329  0.25194260  0.59112603     1.17800
H1797       H  0.52544950  0.29661725  0.68573773     0.33700
H1798       H  0.63372306  0.41280902  0.62084883     0.44600
H1799       H  0.55071389  0.22492014  0.60767705     0.38100
H1800       H  0.67860113  0.29926370  0.66854078     0.34600
H1801       H  0.60195232  0.46506244  0.67516796     0.26400
H1802       H  0.77305339  0.42201169  0.64493948     0.32300
H1803       H  0.69077793  0.22546818  0.62408131     0.38200
H1804       H  0.49571863  0.35574326  0.67856730     0.32700
H1805       H  0.94431025  0.23610837  0.64352739     0.31600
H1806       H  0.97875975  0.14014956  0.64863789     0.33300
H1807       H  0.55524569  0.15378210  0.63151534     0.32200
H1808       H  0.57299721  0.42851277  0.61911253     0.36200
H1809       H  0.59074476  0.39958511  0.58120220     0.29000
H1810       H  0.62876237  0.26997713  0.73026519     0.33200
H1811       H  0.62541425  0.20311596  0.67715680     0.36000
H1812       H  0.45249554  0.27152119  0.65112811     0.28700
H1813       H  0.58030535  0.36389796  0.56230541     0.41500
H1814       H  0.73509265  0.46948526  0.65688744     0.31600
H1815       H  0.64176550  0.45806470  0.67513486     0.39200
H1816       H  0.59606014  0.14925441  0.62832573     0.31000
H1817       H  0.75813037  0.36946527  0.64503681     0.31100
H1818       H  0.65188677  0.25851296  0.71122606     0.31400
C1819       C  0.01243060  0.16199094  0.73976689    -0.16100
C1820       C  0.48826451  0.17092375  0.72107187    -0.31300
H1821       H  0.54319824  0.18498141  0.73934452     0.12900
H1822       H  0.95915073  0.14879430  0.71932951     0.13500
C1823       C  0.51953895  0.12000632  0.88522955    -0.16100
C1824       C  0.53888156  0.12697128  0.90535029    -0.31300
H1825       H  0.48616988  0.09528250  0.88451340     0.12900
H1826       H  0.57155497  0.15277156  0.90725567     0.13500
C1827       C  0.99753957  0.36602040  0.88658398    -0.16100
C1828       C  0.96917457  0.34452727  0.90335794    -0.31300
H1829       H  0.02030922  0.40172058  0.88864957     0.12900
H1830       H  0.94695535  0.30851899  0.90311564     0.13500
C1831       C  0.56482668  0.37674142  0.73875108    -0.16100
C1832       C  0.55962401  0.41335977  0.74193144    -0.31300
H1833       H  0.56526224  0.35639635  0.75330524     0.12900
H1834       H  0.56255958  0.43594491  0.72769293     0.13500
C1835       C  0.84746257  0.44070658  0.89148745    -0.16100
C1836       C  0.85695924  0.43492253  0.87030977    -0.31300
H1837       H  0.82000396  0.44526498  0.89412115     0.12900
H1838       H  0.88227514  0.42701742  0.86722868     0.13500
C1839       C  0.74132847  0.37757164  0.71745817    -0.16100
C1840       C  0.73025003  0.37831800  0.73893289    -0.31300
H1841       H  0.76967196  0.37552577  0.71361238     0.12900
H1842       H  0.70261938  0.38206419  0.74244540     0.13500
C1843       C  0.96745294  0.23534337  0.57215985    -0.16100
C1844       C  0.97785221  0.23260579  0.55070449    -0.31300
H1845       H  0.42763356  0.24440939  0.57658440     0.12900
H1846       H  0.00735042  0.23229806  0.54767666     0.13500
C1847       C  0.65275897  0.26974012  0.53522383    -0.16100
C1848       C  0.64898163  0.25070422  0.55599106    -0.31300
H1849       H  0.65120427  0.30115389  0.53254286     0.12900
H1850       H  0.65346552  0.22084781  0.55788587     0.13500
C1851       C  0.71925966  0.41886564  0.56572674    -0.16100
C1852       C  0.70108153  0.41566127  0.54535269    -0.31300
H1853       H  0.75330944  0.43486588  0.56730854     0.12900
H1854       H  0.66703306  0.40113951  0.54430068     0.13500
C1855       C  0.94338885  0.20314893  0.38489627    -0.16100
C1856       C  0.92946259  0.19245621  0.40651339    -0.31300
H1857       H  0.97674837  0.21755210  0.38112446     0.12900
H1858       H  0.89635547  0.18077504  0.40999715     0.13500
C1859       C  0.76423160  0.23698018  0.38705981    -0.16100
C1860       C  0.74617230  0.21647548  0.40694532    -0.31300
H1861       H  0.77506420  0.27322509  0.38458818     0.12900
H1862       H  0.73222117  0.17972037  0.40907096     0.13500
C1863       C  0.71520044  0.02477063  0.40503446    -0.16100
C1864       C  0.69326100  0.02552246  0.38662371    -0.31300
H1865       H  0.75373268  0.53699474  0.40621640     0.12900
H1866       H  0.65993596  0.01521392  0.38769984     0.13500
C1867       C  0.92563332  0.32233279  0.07088856    -0.16100
C1868       C  0.90414549  0.31160596  0.05147887    -0.31300
H1869       H  0.95814729  0.34958328  0.07079984     0.12900
H1870       H  0.87238215  0.28317824  0.05074987     0.13500
C1871       C  0.91685888  0.24398139  0.21176295    -0.16100
C1872       C  0.93274674  0.24893200  0.23277014    -0.31300
H1873       H  0.88331907  0.22213300  0.20917447     0.12900
H1874       H  0.96581590  0.27204859  0.23590194     0.13500
C1875       C  0.86288459  0.05716234  0.21095950    -0.16100
C1876       C  0.84840044  0.03702951  0.23133837    -0.31300
H1877       H  0.86741225  0.09137508  0.20772061     0.12900
H1878       H  0.84722006  0.00460856  0.23548464     0.13500
C1879       C  0.95862961  0.08811335  0.05369110    -0.16100
C1880       C  0.93539775  0.07017890  0.07263849    -0.31300
H1881       H  0.98296529  0.12340254  0.05257303     0.12900
H1882       H  0.91013788  0.03517123  0.07213237     0.13500
C1883       C  0.64962336  0.06937974  0.21657724    -0.16100
C1884       C  0.65731977  0.07062133  0.23898143    -0.31300
H1885       H  0.61631245  0.05338338  0.21225383     0.12900
H1886       H  0.62864797  0.05591093  0.24914488     0.13500
C1887       C  0.58637712  0.51144118  0.07858072    -0.16100
C1888       C  0.54501774  0.48804583  0.07457167    -0.31300
H1889       H  0.60808097  0.53378568  0.06562947     0.12900
H1890       H  0.54316054  0.95291145  0.08049718     0.13500
C1891       C  0.61417276  0.01099650  0.10091069     0.03500
C1892       C  0.61630629  0.97012900  0.10315156    -0.12700
C1893       C  0.63753093  0.96282539  0.12121503     0.01000
C1894       C  0.65503329  0.99570135  0.13811397    -0.11200
C1895       C  0.64226055  0.52861372  0.13472904     0.03500
C1896       C  0.62136989  0.53535775  0.11596988    -0.10600
H1897       H  0.60398347  0.94524515  0.09000559     0.09100
H1898       H  0.67143837  0.98979000  0.15216646     0.06600
H1899       H  0.61825211  0.56589602  0.11426958     0.06400
C1900       C  0.68167360  0.58096750  0.19240978     0.03500
C1901       C  0.66315698  0.54924659  0.17534755    -0.12700
C1902       C  0.66126083  0.56325119  0.15293602     0.01000
C1903       C  0.67865712  0.61040321  0.14814833    -0.11200
C1904       C  0.69680030  0.64298738  0.16531612     0.03500
C1905       C  0.69816715  0.62777404  0.18740876    -0.10600
H1906       H  0.65038872  0.51341141  0.17975380     0.09100
H1907       H  0.67819159  0.62194258  0.13093561     0.06600
H1908       H  0.71250134  0.65224043  0.20061890     0.06400
C1909       C  0.94736481  0.59551803  0.09599507     0.03500
C1910       C  0.98284076  0.63765978  0.10034638    -0.12700
C1911       C  0.99632066  0.65002266  0.12250800     0.01000
C1912       C  0.97292325  0.61988264  0.14063075    -0.11200
C1913       C  0.93534885  0.57846087  0.13680756     0.03500
C1914       C  0.92288434  0.56781607  0.11420293    -0.10600
H1915       H  0.50236146  0.65717681  0.08617595     0.09100
H1916       H  0.98504401  0.62826616  0.15760309     0.06600
H1917       H  0.89458017  0.53674950  0.11040231     0.06400
C1918       C  0.88179422  0.53452273  0.19476658     0.03500
C1919       C  0.85184141  0.98735579  0.19020594    -0.12700
C1920       C  0.85527692  0.96725298  0.17044315     0.01000
C1921       C  0.88385103  0.99581119  0.15344301    -0.11200
C1922       C  0.90950400  0.54593832  0.15599258     0.03500
C1923       C  0.90868864  0.56288304  0.17737849    -0.10600
H1924       H  0.82743725  0.96635714  0.20227813     0.09100
H1925       H  0.88521483  0.98051307  0.13785698     0.06600
H1926       H  0.92695450  0.59903548  0.18020801     0.06400
C1927       C  0.94199608  0.76166823  0.18950343     0.03500
C1928       C  0.91699074  0.76350989  0.17150745    -0.12700
C1929       C  0.93394881  0.78074512  0.14984498     0.01000
C1930       C  0.97719442  0.79497871  0.14652678    -0.11200
C1931       C  0.50623111  0.79906237  0.17037060     0.03500
C1932       C  0.98473338  0.77583418  0.18568816    -0.10600
H1933       H  0.88358432  0.75001549  0.17445233     0.09100
H1934       H  0.49924526  0.82237644  0.13733838     0.06600
H1935       H  0.50464653  0.77575680  0.20472319     0.06400
C1936       C  0.88801881  0.78146975  0.09068247     0.03500
C1937       C  0.91512290  0.78077180  0.10789359    -0.12700
C1938       C  0.90598453  0.78248171  0.13095235     0.01000
C1939       C  0.86954479  0.78627342  0.13595210    -0.11200
C1940       C  0.84177489  0.78590650  0.11886424     0.03500
C1941       C  0.85100518  0.78232689  0.09643605    -0.10600
H1942       H  0.94291916  0.77870362  0.10311222     0.09100
H1943       H  0.86301381  0.79053562  0.15320748     0.06600
H1944       H  0.83064030  0.78328157  0.08309265     0.06400
Zr1945     Zr  0.74634739  0.80589746  0.16521667     2.17500
O1946       O  0.77628159  0.80664644  0.20231516    -0.51000
O1947       O  0.80008752  0.79930455  0.14484850    -0.74200
O1948       O  0.73000394  0.72480668  0.17336012    -0.81000
O1949       O  0.79361633  0.93462987  0.15046725    -0.82700
O1950       O  0.69230628  0.69860318  0.14243093    -0.78300
O1951       O  0.80644317  0.88478310  0.17177420    -0.90000
O1952       O  0.77869041  0.78879062  0.10825103    -0.75900
O1953       O  0.70721762  0.75673691  0.13560756    -0.85400
O1954       O  0.75339231  0.84936493  0.13120569    -0.85100
O1955       O  0.67376623  0.76321376  0.17832303    -0.71900
O1956       O  0.71531528  0.85340840  0.17363393    -0.84000
Zr1957     Zr  0.61252197  0.80623521  0.12254576     2.26400
Zr1958     Zr  0.63568487  0.71502429  0.14762806     2.06300
Zr1959     Zr  0.72190868  0.89560774  0.13916815     2.10000
Zr1960     Zr  0.71559807  0.79857684  0.10215738     1.78800
O1961       O  0.73740270  0.95757803  0.16457527    -0.92800
O1962       O  0.69676055  0.72697684  0.08395281    -0.40600
O1963       O  0.68441560  0.84671875  0.10902967    -0.77300
O1964       O  0.64188181  0.75750901  0.11323519    -0.95900
O1965       O  0.60502884  0.76145910  0.15586137    -0.89200
O1966       O  0.65122070  0.85506729  0.15237131    -0.92100
C1967       C  0.80434032  0.79152156  0.12429206     1.01700
C1968       C  0.81677300  0.92539741  0.16359519     1.14600
C1969       C  0.70849859  0.69141259  0.16011277     1.05400
O1970       O  0.60571384  0.63859646  0.13296622    -0.94200
O1971       O  0.56235233  0.67800294  0.13709655    -0.90000
O1972       O  0.54873871  0.72989714  0.11838349    -0.83100
C1973       C  0.53766062  0.68900410  0.12622680     1.12000
O1974       O  0.67585310  0.82577059  0.22248773    -0.96200
Zr1975     Zr  0.64256096  0.81066351  0.18544196     1.88900
O1976       O  0.55787623  0.80719232  0.14447846    -0.72900
O1977       O  0.61401404  0.66991437  0.18278809    -0.52100
O1978       O  0.60154584  0.74428442  0.20987963    -0.96800
O1979       O  0.63902501  0.87431631  0.20239884    -0.54000
O1980       O  0.57187347  0.80335409  0.18176838    -0.73400
C1981       C  0.54839994  0.80427142  0.16541176     0.99000
O1982       O  0.58782638  0.80971615  0.08449684    -0.62200
O1983       O  0.75858490  0.94564715  0.10693511    -0.57000
O1984       O  0.61802786  0.88321258  0.11723322    -0.93700
O1985       O  0.68403493  0.93491303  0.12824871    -0.92100
O1986       O  0.77070915  0.86020034  0.07977293    -0.92500
O1987       O  0.69628003  0.79959781  0.06273018    -0.91300
C1988       C  0.64676245  0.92425031  0.12173456     1.17800
H1989       H  0.78255767  0.86749321  0.12676027     0.33700
H1990       H  0.62548765  0.73713097  0.10147932     0.44600
H1991       H  0.64037038  0.87516946  0.15638922     0.38100
H1992       H  0.67275331  0.74588863  0.19184197     0.34600
H1993       H  0.72393263  0.72910559  0.07940676     0.26400
H1994       H  0.58500447  0.66463454  0.18545536     0.32300
H1995       H  0.58204261  0.75181225  0.21804246     0.38200
H1996       H  0.78651913  0.84637637  0.07280978     0.32700
H1997       H  0.78399091  0.94214213  0.10478067     0.31600
H1998       H  0.75120301  0.98566396  0.15496297     0.33300
H1999       H  0.66860577  0.89890048  0.20313665     0.32200
H2000       H  0.68358411  0.82006450  0.06209600     0.36200
H2001       H  0.59761106  0.79222070  0.07539778     0.29000
H2002       H  0.79871784  0.79841719  0.19953859     0.33200
H2003       H  0.70650715  0.84130092  0.21930077     0.36000
H2004       H  0.74066193  0.93100707  0.09372323     0.28700
H2005       H  0.55681772  0.79056707  0.08525060     0.41500
H2006       H  0.61656104  0.64321112  0.11730814     0.31600
H2007       H  0.68627303  0.70360903  0.09631928     0.39200
H2008       H  0.63037679  0.86485901  0.21830921     0.31000
H2009       H  0.61038956  0.63967558  0.17891420     0.31100
H2010       H  0.75407835  0.77985116  0.21057826     0.31400
Zr2011     Zr  0.81287695  0.63648545  0.35433558     2.17500
O2012       O  0.81314843  0.62033360  0.39482288    -0.51000
O2013       O  0.78477687  0.68033950  0.37335651    -0.74200
O2014       O  0.88195476  0.67422592  0.37156657    -0.81000
O2015       O  0.70229986  0.55132558  0.34976503    -0.82700
O2016       O  0.93459583  0.70946673  0.34582514    -0.78300
O2017       O  0.76173596  0.56145559  0.36683015    -0.90000
O2018       O  0.77945189  0.72849511  0.34736310    -0.75900
O2019       O  0.84843504  0.70463171  0.33202704    -0.85400
O2020       O  0.75805636  0.63970908  0.33297515    -0.85100
O2021       O  0.86380166  0.62664561  0.33264940    -0.71900
O2022       O  0.78159275  0.56834296  0.33279159    -0.84000
Zr2023     Zr  0.81323001  0.63231975  0.26660642     2.26400
Zr2024     Zr  0.89845264  0.69505879  0.30941784     2.06300
Zr2025     Zr  0.72763145  0.57285255  0.31069417     2.10000
Zr2026     Zr  0.79343473  0.70764556  0.31066406     1.78800
O2027       O  0.69159062  0.49079615  0.30578955    -0.92800
O2028       O  0.83276346  0.78946981  0.31646028    -0.40600
O2029       O  0.76215118  0.64147153  0.28815434    -0.77300
O2030       O  0.84453351  0.70064604  0.28795121    -0.95900
O2031       O  0.86725176  0.62781420  0.28760595    -0.89200
O2032       O  0.77745260  0.56315768  0.28824487    -0.92100
C2033       C  0.77657302  0.71260910  0.36762650     1.01700
C2034       C  0.72215700  0.54749573  0.36710171     1.14600
C2035       C  0.92099204  0.69765193  0.36616973     1.05400
O2036       O  0.93676711  0.77766733  0.31139196    -0.94200
O2037       O  0.92797057  0.72303301  0.27119207    -0.90000
O2038       O  0.87479248  0.68546214  0.24640822    -0.83100
C2039       C  0.91265800  0.71488418  0.25103166     1.12000
O2040       O  0.83451858  0.51174761  0.34082670    -0.96200
Zr2041     Zr  0.83167185  0.56001860  0.31001093     1.88900
O2042       O  0.83639580  0.58550988  0.24694986    -0.72900
O2043       O  0.96179948  0.68734235  0.30576706    -0.52100
O2044       O  0.90153429  0.56722546  0.31504692    -0.96800
O2045       O  0.78293290  0.47872026  0.30762034    -0.54000
O2046       O  0.84647363  0.54067277  0.27308695    -0.73400
C2047       C  0.84678920  0.55494038  0.25271319     0.99000
O2048       O  0.80285697  0.67033636  0.23322445    -0.62200
O2049       O  0.65602405  0.56073309  0.31534567    -0.57000
O2050       O  0.74710433  0.58394967  0.24893888    -0.93700
O2051       O  0.69896801  0.58064584  0.27389460    -0.92100
O2052       O  0.72092144  0.69259628  0.30554829    -0.92500
O2053       O  0.79397470  0.75137968  0.27683730    -0.91300
C2054       C  0.71125721  0.58040527  0.25364215     1.17800
H2055       H  0.73606479  0.63959841  0.34210559     0.33700
H2056       H  0.85707448  0.72703709  0.27787917     0.44600
H2057       H  0.76380979  0.53720565  0.27867188     0.38100
H2058       H  0.88363114  0.62288953  0.34233175     0.34600
H2059       H  0.85376082  0.80212461  0.30407310     0.26400
H2060       H  0.98511458  0.71678278  0.31065470     0.32300
H2061       H  0.91707193  0.58311687  0.30108611     0.38200
H2062       H  0.72295591  0.72115234  0.29901240     0.32700
H2063       H  0.65665413  0.58877928  0.30900636     0.31600
H2064       H  0.68921231  0.48696809  0.28924682     0.33300
H2065       H  0.80268536  0.97088475  0.29898726     0.32200
H2066       H  0.77839592  0.72817853  0.26543916     0.36200
H2067       H  0.79612383  0.64884129  0.22077915     0.29000
H2068       H  0.82650855  0.65012036  0.40225126     0.33200
H2069       H  0.84496445  0.53192853  0.35390889     0.36000
H2070       H  0.63871073  0.53671603  0.30462652     0.28700
H2071       H  0.77642147  0.67144743  0.23603234     0.41500
H2072       H  0.91823189  0.78798692  0.30371983     0.31600
H2073       H  0.81258796  0.80100135  0.31314230     0.39200
H2074       H  0.75698068  0.47429652  0.31526547     0.31000
H2075       H  0.95943171  0.66512577  0.31784661     0.31100
H2076       H  0.83304250  0.60804600  0.39702869     0.31400
C2077       C  0.72773265  0.94142609  0.52229491     0.03500
C2078       C  0.70773064  0.95555999  0.50584423    -0.12700
C2079       C  0.72548684  0.97222416  0.48428749     0.01000
C2080       C  0.76427787  0.97205607  0.47976315    -0.11200
C2081       C  0.78323915  0.95462958  0.49575507     0.03500
C2082       C  0.76461676  0.93979424  0.51701946    -0.10600
H2083       H  0.67808671  0.95345782  0.51045127     0.09100
H2084       H  0.77562349  0.47074249  0.46478444     0.06600
H2085       H  0.77913445  0.92755506  0.52956410     0.06400
C2086       C  0.69803344  0.01457242  0.42824464     0.03500
C2087       C  0.71748160  0.99918368  0.44442395    -0.12700
C2088       C  0.70363919  0.98947170  0.46706590     0.01000
C2089       C  0.66793383  0.99521680  0.47251694    -0.11200
C2090       C  0.64784554  0.01064100  0.45622846     0.03500
C2091       C  0.66422304  0.02151335  0.43441228    -0.10600
H2092       H  0.74300273  0.99394140  0.43870940     0.09100
H2093       H  0.65471794  0.98757034  0.48929361     0.06600
H2094       H  0.64935299  0.03365853  0.42207499     0.06400
C2095       C  0.65641563  0.73670640  0.51623457     0.03500
C2096       C  0.62670116  0.69042659  0.51601219    -0.12700
C2097       C  0.62751078  0.66289967  0.49918801     0.01000
C2098       C  0.65963694  0.68126399  0.48274682    -0.11200
C2099       C  0.68846185  0.72801175  0.48139551     0.03500
C2100       C  0.68597562  0.75592699  0.49840628    -0.10600
H2101       H  0.60166225  0.67626628  0.52851803     0.09100
H2102       H  0.66117275  0.65861093  0.47063683     0.06600
H2103       H  0.70685469  0.79226659  0.49817217     0.06400
C2104       C  0.74814520  0.74131338  0.42523667     0.03500
C2105       C  0.71613808  0.72375761  0.44193789    -0.12700
C2106       C  0.72101369  0.74665749  0.46259417     0.01000
C2107       C  0.75898495  0.78682105  0.46583106    -0.11200
C2108       C  0.79077611  0.80472719  0.44923252     0.03500
C2109       C  0.78476618  0.78238670  0.42896954    -0.10600
H2110       H  0.68782438  0.69240761  0.43854309     0.09100
H2111       H  0.76485104  0.80361935  0.48177163     0.06600
H2112       H  0.81027893  0.79524994  0.41678236     0.06400
C2113       C  0.94534411  0.73448537  0.53064275     0.03500
C2114       C  0.95196835  0.71559643  0.51118366    -0.12700
C2115       C  0.94821489  0.73087726  0.48926721     0.01000
C2116       C  0.93370501  0.76360671  0.48776874    -0.11200
C2117       C  0.92519445  0.78198236  0.50706747     0.03500
C2118       C  0.93090056  0.76680658  0.52849794    -0.10600
H2119       H  0.96280120  0.69085880  0.51367277     0.09100
H2120       H  0.93352294  0.77963582  0.47172510     0.06600
H2121       H  0.92993260  0.78481506  0.54317697     0.06400
C2122       C  0.96094192  0.70811690  0.42711552     0.03500
C2123       C  0.98192568  0.68190715  0.42905431    -0.12700
C2124       C  0.49374493  0.66732450  0.45490661     0.01000
C2125       C  0.48636906  0.68873001  0.47340730    -0.11200
C2126       C  0.46286489  0.71271183  0.47119625     0.03500
C2127       C  0.95120667  0.72410562  0.44660808    -0.10600
H2128       H  0.98419884  0.66447825  0.41444746     0.09100
H2129       H  0.49752745  0.68409962  0.48972606     0.06600
H2130       H  0.93202546  0.74060736  0.44440773     0.06400
Zr2131     Zr  0.89507760  0.91035505  0.49629123     2.17500
O2132       O  0.86459458  0.88174528  0.53357529    -0.51000
O2133       O  0.83889071  0.85461444  0.47492079    -0.74200
O2134       O  0.83455632  0.92696777  0.49963598    -0.81000
O2135       O  0.96908640  0.85709726  0.49856620    -0.82700
O2136       O  0.85019773  0.99165088  0.47907567    -0.78300
O2137       O  0.90073866  0.83912123  0.50500022    -0.90000
O2138       O  0.85788059  0.86534632  0.43788845    -0.75900
O2139       O  0.89052775  0.94533389  0.46145498    -0.85400
O2140       O  0.93412320  0.89679352  0.46810027    -0.85100
O2141       O  0.92545726  0.99052222  0.50323485    -0.71900
O2142       O  0.96617671  0.94399559  0.51041014    -0.84000
Zr2143     Zr  0.53256063  0.54622963  0.45499877     2.26400
Zr2144     Zr  0.91861265  0.51951103  0.47382596     2.06300
Zr2145     Zr  0.00474955  0.93094670  0.48156963     2.10000
Zr2146     Zr  0.92844728  0.93063208  0.43352336     1.78800
O2147       O  0.54606511  0.92659719  0.51405419    -0.92800
O2148       O  0.88354255  0.94367625  0.40660525    -0.40600
O2149       O  0.00073721  0.96395206  0.44583632    -0.77300
O2150       O  0.95762085  0.51080781  0.44369967    -0.95900
O2151       O  0.99034919  0.55702525  0.48515524    -0.89200
O2152       O  0.53774597  0.01498655  0.48928449    -0.92100
C2153       C  0.83180031  0.84431768  0.45418294     1.01700
C2154       C  0.93128638  0.82901575  0.50409571     1.14600
C2155       C  0.82505377  0.95723740  0.49114467     1.05400
O2156       O  0.88169469  0.53751949  0.44390742    -0.94200
O2157       O  0.95338469  0.59661570  0.46172081    -0.90000
O2158       O  0.52100159  0.61390988  0.44646102    -0.83100
C2159       C  0.98939273  0.62512233  0.45393794     1.12000
O2160       O  0.97520620  0.00929630  0.55508942    -0.96200
Zr2161     Zr  0.99943288  0.52439526  0.51925186     1.88900
O2162       O  0.58640355  0.60422063  0.47582993    -0.72900
O2163       O  0.90140038  0.55771305  0.50306091    -0.52100
O2164       O  0.98145744  0.57620459  0.53845602    -0.96800
O2165       O  0.55438938  0.02643767  0.54211173    -0.54000
O2166       O  0.56588195  0.59585319  0.51263516    -0.73400
C2167       C  0.59124940  0.61755417  0.49605715     0.99000
O2168       O  0.56460061  0.57620342  0.41813997    -0.62200
O2169       O  0.01498482  0.88355796  0.45460636    -0.57000
O2170       O  0.59394445  0.52977818  0.45211726    -0.93700
O2171       O  0.58143857  0.97263852  0.47324947    -0.92100
O2172       O  0.93364932  0.86638422  0.41860814    -0.92500
O2173       O  0.95937843  0.94892913  0.39579921    -0.91300
C2174       C  0.60555089  0.00693828  0.46079517     1.17800
H2175       H  0.92321699  0.86477441  0.46548374     0.33700
H2176       H  0.95545312  0.52642158  0.43017444     0.44600
H2177       H  0.56638547  0.51942837  0.49335361     0.38100
H2178       H  0.90881652  0.99559531  0.51429161     0.34600
H2179       H  0.86060065  0.94294023  0.41587898     0.26400
H2180       H  0.92828835  0.58539754  0.50617750     0.32300
H2181       H  0.48317347  0.59461495  0.52484618     0.38200
H2182       H  0.96359090  0.87872418  0.41425317     0.32700
H2183       H  0.54044741  0.90824691  0.44535365     0.31600
H2184       H  0.55798456  0.90756555  0.50844189     0.33300
H2185       H  0.57906687  0.52546575  0.53333819     0.32200
H2186       H  0.98995688  0.96836694  0.39834751     0.36200
H2187       H  0.59448256  0.59763873  0.42145854     0.29000
H2188       H  0.83629331  0.85602153  0.53054372     0.33200
H2189       H  0.94719131  0.48304311  0.55791872     0.36000
H2190       H  0.98628180  0.85881142  0.45142487     0.28700
H2191       H  0.56530814  0.55026221  0.41093408     0.41500
H2192       H  0.91751784  0.07664982  0.42941397     0.31600
H2193       H  0.90013097  0.97588305  0.40144096     0.39200
H2194       H  0.54932323  0.99466081  0.54171486     0.31000
H2195       H  0.88384677  0.56930536  0.49535169     0.31100
H2196       H  0.85903065  0.90567816  0.53955135     0.31400
C2197       C  0.76878812  0.86832683  0.75164973     0.03500
C2198       C  0.75325058  0.82191829  0.75680442    -0.12700
C2199       C  0.75568643  0.80661555  0.77855175     0.01000
C2200       C  0.77474571  0.83852525  0.79575338    -0.11200
C2201       C  0.79044020  0.88576672  0.79144637     0.03500
C2202       C  0.78681236  0.90023328  0.76902645    -0.10600
H2203       H  0.74041238  0.79734910  0.74349925     0.09100
H2204       H  0.77752323  0.82635114  0.81246900     0.06600
H2205       H  0.79919378  0.93611342  0.76489101     0.06400
C2206       C  0.84785605  0.94403730  0.84645063     0.03500
C2207       C  0.83961334  0.98115537  0.84644481    -0.12700
C2208       C  0.81616985  0.98753932  0.82909185     0.01000
C2209       C  0.80116218  0.95646562  0.81128993    -0.11200
C2210       C  0.80938737  0.91943956  0.81034059     0.03500
C2211       C  0.83364319  0.91405837  0.82807679    -0.10600
H2212       H  0.83944677  0.50385998  0.86322801     0.09100
H2213       H  0.78197518  0.96067032  0.79824404     0.06600
H2214       H  0.84088550  0.88626482  0.82785634     0.06400
C2215       C  0.55184549  0.92792640  0.76295352     0.03500
C2216       C  0.57844961  0.97305108  0.76869268    -0.12700
C2217       C  0.58584776  0.98491038  0.79128497     0.01000
C2218       C  0.56179354  0.95178221  0.80821684    -0.11200
C2219       C  0.53207932  0.90588268  0.80296187     0.03500
C2220       C  0.52875097  0.89479813  0.77988478    -0.10600
H2221       H  0.59817653  0.99731142  0.75573086     0.09100
H2222       H  0.56835188  0.96249383  0.82543034     0.06600
H2223       H  0.50984911  0.86003773  0.77478297     0.06400
C2224       C  0.99609542  0.84414838  0.86474968     0.03500
C2225       C  0.96187882  0.80230616  0.85887500    -0.12700
C2226       C  0.94821140  0.79425709  0.83654662     0.01000
C2227       C  0.97088957  0.82794013  0.81954687    -0.11200
C2228       C  0.50699460  0.86924283  0.82122271     0.03500
C2229       C  0.51634784  0.87765097  0.84438855    -0.10600
H2230       H  0.94276606  0.77766231  0.87174223     0.09100
H2231       H  0.95825521  0.82230929  0.80261780     0.06600
H2232       H  0.54194083  0.90954667  0.84965268     0.06400
C2233       C  0.53370435  0.63441516  0.86357464     0.03500
C2234       C  0.57436426  0.64027453  0.86009391    -0.12700
C2235       C  0.59099350  0.64709125  0.83823349     0.01000
C2236       C  0.56625468  0.64850641  0.81984404    -0.11200
C2237       C  0.52574496  0.64415409  0.82296976     0.03500
C2238       C  0.51035811  0.63765611  0.84528157    -0.10600
H2239       H  0.59164253  0.63598735  0.87417782     0.09100
H2240       H  0.57833336  0.65129891  0.80298308     0.06600
H2241       H  0.47971621  0.63408263  0.84892780     0.06400
C2242       C  0.99003025  0.65874333  0.76340775     0.03500
C2243       C  0.01545251  0.65714200  0.78127973    -0.12700
C2244       C  0.00076670  0.64727274  0.80386782     0.01000
C2245       C  0.95895619  0.63903746  0.80759446    -0.11200
C2246       C  0.93361857  0.64198588  0.79002859     0.03500
C2247       C  0.94932045  0.65140875  0.76799001    -0.10600
H2248       H  0.55153305  0.68002729  0.77974726     0.09100
H2249       H  0.94512329  0.63068314  0.82414415     0.06600
H2250       H  0.93051863  0.65541643  0.75470544     0.06400
Zr2251     Zr  0.69759679  0.64577247  0.79340718     2.17500
O2252       O  0.66989554  0.64576469  0.75575686    -0.51000
O2253       O  0.64151156  0.64803099  0.81331221    -0.74200
O2254       O  0.63747576  0.56760601  0.78706782    -0.81000
O2255       O  0.78159833  0.75506426  0.78027331    -0.82700
O2256       O  0.64210857  0.52554995  0.81642752    -0.78300
O2257       O  0.71240311  0.72532977  0.78547076    -0.90000
O2258       O  0.65576164  0.64939239  0.85081424    -0.75900
O2259       O  0.68747228  0.60173445  0.82725020    -0.85400
O2260       O  0.73544799  0.69658822  0.82330582    -0.85100
O2261       O  0.72614106  0.59581644  0.78536004    -0.71900
O2262       O  0.77066448  0.68535531  0.78193671    -0.84000
Zr2263     Zr  0.82771140  0.64015845  0.83706490     2.26400
Zr2264     Zr  0.71661057  0.55317014  0.82006430     2.06300
Zr2265     Zr  0.80816519  0.73363337  0.81266144     2.10000
Zr2266     Zr  0.72462272  0.65130656  0.85654482     1.78800
O2267       O  0.85190212  0.81189255  0.79892878    -0.92800
O2268       O  0.67639655  0.58661248  0.88024294    -0.40600
O2269       O  0.79871804  0.68916204  0.84646943    -0.77300
O2270       O  0.75518343  0.60209868  0.85017314    -0.95900
O2271       O  0.78800662  0.59101913  0.80777613    -0.89200
O2272       O  0.83710524  0.68543114  0.80369698    -0.92100
C2273       C  0.63223620  0.64855036  0.83401375     1.01700
C2274       C  0.74898657  0.75976433  0.78165964     1.14600
C2275       C  0.62283420  0.53015699  0.79921921     1.05400
O2276       O  0.68901005  0.50216312  0.85303667    -0.94200
O2277       O  0.75530865  0.51241931  0.82546202    -0.90000
O2278       O  0.81923951  0.56166990  0.83991767    -0.83100
C2279       C  0.79157415  0.52173981  0.83326671     1.12000
O2280       O  0.77098190  0.62410880  0.73631931    -0.96200
Zr2281     Zr  0.79929814  0.63567792  0.77446297     1.88900
O2282       O  0.88355104  0.63890019  0.81609477    -0.72900
O2283       O  0.68595986  0.49074429  0.79381810    -0.52100
O2284       O  0.79273543  0.56784698  0.75672434    -0.96800
O2285       O  0.84210103  0.70100771  0.74969010    -0.54000
O2286       O  0.86801767  0.63790756  0.77877298    -0.73400
C2287       C  0.89215517  0.63885588  0.79520081     0.99000
O2288       O  0.85352457  0.63566646  0.87479593    -0.62200
O2289       O  0.80222514  0.77909169  0.84239372    -0.57000
O2290       O  0.89158407  0.71638067  0.84150201    -0.93700
O2291       O  0.88252230  0.76776479  0.81943356    -0.92100
O2292       O  0.73537047  0.72106193  0.87404294    -0.92500
O2293       O  0.74643919  0.66182623  0.89592177    -0.91300
C2294       C  0.90507349  0.75655625  0.83206603     1.17800
H2295       H  0.72577471  0.71845964  0.82580480     0.33700
H2296       H  0.75306885  0.58426548  0.86369813     0.44600
H2297       H  0.86602879  0.70238205  0.79875746     0.38100
H2298       H  0.71007424  0.57563306  0.77347109     0.34600
H2299       H  0.65745109  0.56363780  0.86949817     0.26400
H2300       H  0.71990835  0.99098013  0.78204716     0.32300
H2301       H  0.80773475  0.55639850  0.76688110     0.38200
H2302       H  0.71477892  0.72884176  0.86675211     0.32700
H2303       H  0.81428483  0.77163494  0.85593492     0.31600
H2304       H  0.86406404  0.80937632  0.78448400     0.33300
H2305       H  0.87066880  0.70391859  0.75019891     0.32200
H2306       H  0.76494983  0.64769114  0.89760136     0.36200
H2307       H  0.85525202  0.60701225  0.87536753     0.29000
H2308       H  0.69505473  0.66556848  0.74647700     0.33200
H2309       H  0.75494129  0.64118918  0.73547640     0.36000
H2310       H  0.82324714  0.81086989  0.83848541     0.28700
H2311       H  0.88330522  0.65990632  0.87486588     0.41500
H2312       H  0.66077035  0.47825240  0.84844238     0.31600
H2313       H  0.69355515  0.57342459  0.88686640     0.39200
H2314       H  0.84489561  0.72773444  0.75782294     0.31000
H2315       H  0.68431063  0.46398702  0.80230087     0.31100
H2316       H  0.65449951  0.66337486  0.75700212     0.31400
Zr2317     Zr  0.97519446  0.96411775  0.93626192     2.17500
O2318       O  0.53638124  0.00163621  0.90707695    -0.51000
O2319       O  0.92001900  0.94709623  0.90771292    -0.74200
O2320       O  0.98220648  0.90384463  0.91971681    -0.81000
O2321       O  0.50697627  0.60041069  0.94300187    -0.82700
O2322       O  0.95759480  0.84291857  0.94414635    -0.78300
O2323       O  0.50926048  0.55132190  0.91793455    -0.90000
O2324       O  0.85990492  0.92828989  0.92711678    -0.75900
O2325       O  0.91694239  0.89855985  0.95221175    -0.85400
O2326       O  0.93386731  0.50723741  0.95300261    -0.85100
O2327       O  0.00620132  0.93559767  0.96407910    -0.71900
O2328       O  0.52503620  0.53245113  0.96427842    -0.84000
Zr2329     Zr  0.94308312  0.95213023  0.02251870     2.26400
Zr2330     Zr  0.94724527  0.87006924  0.98058815     2.06300
Zr2331     Zr  0.98301375  0.55861111  0.97946706     2.10000
Zr2332     Zr  0.87406076  0.92737820  0.96745495     1.78800
O2333       O  0.53377929  0.63314489  0.98401452    -0.92800
O2334       O  0.82168257  0.84858440  0.96093540    -0.40600
O2335       O  0.92276478  0.49679046  0.99742917    -0.77300
O2336       O  0.90071899  0.89521874  0.99604888    -0.95900
O2337       O  0.98787440  0.92540515  0.00777709    -0.89200
O2338       O  0.50119912  0.52391051  0.00681433    -0.92100
C2339       C  0.88079429  0.93640401  0.90861527     1.01700
C2340       C  0.51443144  0.59038322  0.92340198     1.14600
C2341       C  0.97272072  0.86268973  0.92485956     1.05400
O2342       O  0.88375095  0.79641034  0.98056328    -0.94200
O2343       O  0.94118726  0.83755408  0.01917546    -0.90000
O2344       O  0.93471809  0.88539594  0.04346417    -0.83100
C2345       C  0.93700235  0.84939226  0.03909476     1.12000
O2346       O  0.60495378  0.00918853  0.96299098    -0.96200
Zr2347     Zr  0.54915643  0.99423277  0.98999044     1.88900
O2348       O  0.99729814  0.97512449  0.05087580    -0.72900
O2349       O  0.99314971  0.83528054  0.98085661    -0.52100
O2350       O  0.58082972  0.94532352  0.99751159    -0.96800
O2351       O  0.60439399  0.57352144  0.00413564    -0.54000
O2352       O  0.56376037  0.99763958  0.03087347    -0.73400
C2353       C  0.54098023  0.98711035  0.04890629     0.99000
O2354       O  0.88082780  0.92717787  0.04628498    -0.62200
O2355       O  0.94435047  0.59957948  0.96994472    -0.57000
O2356       O  0.95027283  0.52368666  0.04087564    -0.93700
O2357       O  0.97582910  0.58484082  0.01647285    -0.92100
O2358       O  0.84845614  0.49972094  0.96834718    -0.92500
O2359       O  0.81379257  0.90721639  0.99212761    -0.91300
C2360       C  0.96211614  0.56568636  0.03596248     1.17800
H2361       H  0.92475902  0.52321916  0.94238993     0.33700
H2362       H  0.87765801  0.87004840  0.00386118     0.44600
H2363       H  0.51479589  0.54498403  0.01877652     0.38100
H2364       H  0.52373848  0.93208108  0.95356936     0.34600
H2365       H  0.81836557  0.83232890  0.97563813     0.26400
H2366       H  0.02210172  0.86113268  0.98161506     0.32300
H2367       H  0.61008930  0.96628388  0.00216606     0.38200
H2368       H  0.84568164  0.98761253  0.94836855     0.33300
H2369       H  0.92387117  0.59173377  0.98244595     0.31600
H2370       H  0.55848603  0.62890819  0.98769695     0.33300
H2371       H  0.62362760  0.56689054  0.01364126     0.32200
H2372       H  0.81786069  0.89057686  0.00517421     0.36200
H2373       H  0.88932224  0.92119193  0.06142076     0.29000
H2374       H  0.52291124  0.98858393  0.89252055     0.33200
H2375       H  0.59620359  0.01893558  0.94889192     0.36000
H2376       H  0.96505473  0.63197384  0.97214530     0.28700
H2377       H  0.86049221  0.89670680  0.04085064     0.41500
H2378       H  0.89431828  0.77402851  0.98064655     0.31600
H2379       H  0.79475168  0.84915839  0.95870029     0.39200
H2380       H  0.59130547  0.58538082  0.01475978     0.31000
H2381       H  0.98876528  0.81905632  0.99563651     0.31100
H2382       H  0.55212166  0.98524771  0.91151452     0.31400
Zr2383     Zr  0.61750956  0.80941780  0.68846432     2.17500
O2384       O  0.64388856  0.77303844  0.71568816    -0.51000
O2385       O  0.59373110  0.84489324  0.71536579    -0.74200
O2386       O  0.68176028  0.85844860  0.70745450    -0.81000
O2387       O  0.50424128  0.71347774  0.68412671    -0.82700
O2388       O  0.72994640  0.90499631  0.68120308    -0.78300
O2389       O  0.56036014  0.74668960  0.70761416    -0.90000
O2390       O  0.57568800  0.89296326  0.69639622    -0.75900
O2391       O  0.64448866  0.88347556  0.67176350    -0.85400
O2392       O  0.55731966  0.81118837  0.67295231    -0.85100
O2393       O  0.66899753  0.81486025  0.66178386    -0.71900
O2394       O  0.58706503  0.74708152  0.66333316    -0.84000
Zr2395     Zr  0.60332374  0.82862573  0.60249192     2.26400
Zr2396     Zr  0.69428510  0.88858673  0.64389058     2.06300
Zr2397     Zr  0.52753553  0.75060404  0.64691180     2.10000
Zr2398     Zr  0.58453607  0.88518070  0.65608943     1.78800
O2399       O  0.49728556  0.66981235  0.63950556    -0.92800
O2400       O  0.63245173  0.96632621  0.65965874    -0.40600
O2401       O  0.55332439  0.82473096  0.62969317    -0.77300
O2402       O  0.63423510  0.89155832  0.62764428    -0.95900
O2403       O  0.66348842  0.82741892  0.61820972    -0.89200
O2404       O  0.57720370  0.75472293  0.61936566    -0.92100
C2405       C  0.58001200  0.87374916  0.71463455     1.01700
C2406       C  0.52217320  0.71758835  0.70340929     1.14600
C2407       C  0.71852021  0.88970693  0.70167026     1.05400
O2408       O  0.72665632  0.97120057  0.64491726    -0.94200
O2409       O  0.71957302  0.91546642  0.60478303    -0.90000
O2410       O  0.66230956  0.88411832  0.58193957    -0.83100
C2411       C  0.70161150  0.90938012  0.58526847     1.12000
O2412       O  0.65799145  0.71251321  0.66288652    -0.96200
Zr2413     Zr  0.63774177  0.75438765  0.63557208     1.88900
O2414       O  0.62551779  0.79170065  0.57486030    -0.72900
O2415       O  0.76187982  0.88984499  0.63988457    -0.52100
O2416       O  0.70888084  0.76614685  0.62957228    -0.96800
O2417       O  0.59698134  0.67227620  0.63136243    -0.54000
O2418       O  0.64544935  0.74704868  0.59557423    -0.73400
C2419       C  0.64001647  0.76343315  0.57676906     0.99000
O2420       O  0.58125215  0.87107156  0.57649262    -0.62200
O2421       O  0.94901721  0.73718037  0.65629469    -0.57000
O2422       O  0.53622866  0.78356574  0.58464291    -0.93700
O2423       O  0.48781240  0.74527729  0.61224089    -0.92100
O2424       O  0.51559098  0.87923631  0.66243891    -0.92500
O2425       O  0.56344562  0.92655281  0.62894953    -0.91300
C2426       C  0.49828244  0.75846599  0.59157883     1.17800
H2427       H  0.53652037  0.80625560  0.68432539     0.33700
H2428       H  0.64351606  0.91989512  0.61917755     0.44600
H2429       H  0.56395413  0.73118684  0.60840389     0.38100
H2430       H  0.69186716  0.81324843  0.66959144     0.34600
H2431       H  0.61685009  0.97736360  0.66900109     0.26400
H2432       H  0.76242979  0.86943710  0.65218015     0.32300
H2433       H  0.72020482  0.78840629  0.61674945     0.38200
H2434       H  0.52154095  0.90794136  0.66974505     0.32700
H2435       H  0.94727755  0.76113706  0.64685404     0.31600
H2436       H  0.95318747  0.65198025  0.63584264     0.33300
H2437       H  0.58881765  0.66807486  0.61525259     0.32200
H2438       H  0.56603786  0.91547987  0.61406102     0.36200
H2439       H  0.60034710  0.90361122  0.57941800     0.29000
H2440       H  0.63123585  0.74088632  0.71120321     0.33200
H2441       H  0.67026415  0.73306524  0.67572161     0.36000
H2442       H  0.46380243  0.77408560  0.65798799     0.28700
H2443       H  0.58933703  0.86636831  0.56128575     0.41500
H2444       H  0.75727980  0.98156070  0.64585761     0.31600
H2445       H  0.65540630  0.96812705  0.66956897     0.39200
H2446       H  0.57032168  0.66326415  0.63956666     0.31000
H2447       H  0.75909710  0.87304393  0.62594742     0.31100
H2448       H  0.63015543  0.77200517  0.73022336     0.31400
C2449       C  0.00954634  0.67487811  0.74077974    -0.16100
C2450       C  0.49731164  0.68793163  0.72251249    -0.31300
H2451       H  0.54986503  0.71122619  0.74403656     0.12900
H2452       H  0.95471579  0.65547891  0.72051573     0.13500
C2453       C  0.51155261  0.61457748  0.88508653    -0.16100
C2454       C  0.53031807  0.62535009  0.90529839    -0.31300
H2455       H  0.48026142  0.58523886  0.88393001     0.12900
H2456       H  0.56067411  0.65549228  0.90728570     0.13500
C2457       C  0.00300549  0.85974282  0.88851463    -0.16100
C2458       C  0.97772641  0.83681076  0.90636778    -0.31300
H2459       H  0.02563212  0.89547591  0.89058780     0.12900
H2460       H  0.95633884  0.80054412  0.90614115     0.13500
C2461       C  0.56851606  0.88411296  0.73668949    -0.16100
C2462       C  0.55519799  0.91473069  0.73973898    -0.31300
H2463       H  0.57303829  0.86679908  0.75144741     0.12900
H2464       H  0.55330905  0.93487216  0.72548672     0.13500
C2465       C  0.85768003  0.93616655  0.88751621    -0.16100
C2466       C  0.87068143  0.93675997  0.86611734    -0.31300
H2467       H  0.82839339  0.93728604  0.88982240     0.12900
H2468       H  0.89822517  0.93269288  0.86302104     0.13500
C2469       C  0.74884055  0.90644845  0.72059298    -0.16100
C2470       C  0.76607467  0.88042595  0.72746305    -0.31300
H2471       H  0.74393356  0.92676569  0.73296203     0.12900
H2472       H  0.76670130  0.85707463  0.71524926     0.13500
C2473       C  0.95615112  0.73671546  0.57274247    -0.16100
C2474       C  0.96538092  0.72950809  0.55182453    -0.31300
H2475       H  0.43674493  0.74809611  0.57802196     0.12900
H2476       H  0.99289149  0.72474937  0.54974582     0.13500
C2477       C  0.65501853  0.76379302  0.53535034    -0.16100
C2478       C  0.64947571  0.74556959  0.55644908    -0.31300
H2479       H  0.65700459  0.79689964  0.53215018     0.12900
H2480       H  0.65113751  0.71414607  0.55906917     0.13500
C2481       C  0.72685760  0.93081738  0.56454463    -0.16100
C2482       C  0.70689988  0.92514423  0.54444774    -0.31300
H2483       H  0.76100694  0.94946758  0.56551145     0.12900
H2484       H  0.67266827  0.90834819  0.54396129     0.13500
C2485       C  0.95152755  0.70879545  0.38492310    -0.16100
C2486       C  0.93891611  0.70967910  0.40609564    -0.31300
H2487       H  0.98255783  0.71254953  0.38169920     0.12900
H2488       H  0.90883148  0.70910458  0.40837431     0.13500
C2489       C  0.76516705  0.73490362  0.38546033    -0.16100
C2490       C  0.74692865  0.71436724  0.40533316    -0.31300
H2491       H  0.77429187  0.77065970  0.38253301     0.12900
H2492       H  0.73450502  0.67784433  0.40772021     0.13500
C2493       C  0.72052923  0.52738509  0.40737341    -0.16100
C2494       C  0.69941048  0.52786915  0.38849381    -0.31300
H2495       H  0.74796188  0.03292777  0.40320098     0.12900
H2496       H  0.66577891  0.51622667  0.38893010     0.13500
C2497       C  0.89904764  0.78723132  0.06629349    -0.16100
C2498       C  0.93593107  0.82150280  0.05906592    -0.31300
H2499       H  0.87303077  0.77367348  0.05437617     0.12900
H2500       H  0.96062559  0.83872827  0.07141052     0.13500
C2501       C  0.92063045  0.74046632  0.21130253    -0.16100
C2502       C  0.93928739  0.74095059  0.23135836    -0.31300
H2503       H  0.88640367  0.72285496  0.21060361     0.12900
H2504       H  0.97318367  0.76020238  0.23340181     0.13500
C2505       C  0.87548409  0.55621057  0.21490613    -0.16100
C2506       C  0.85914357  0.53397373  0.23467486    -0.31300
H2507       H  0.88305562  0.59175635  0.21303794     0.12900
H2508       H  0.85457246  0.49975047  0.23774101     0.13500
C2509       C  0.96203262  0.59416729  0.05455232    -0.16100
C2510       C  0.93890490  0.57467928  0.07336052    -0.31300
H2511       H  0.98401123  0.63029361  0.05340308     0.12900
H2512       H  0.91562930  0.53879925  0.07289112     0.13500
C2513       C  0.69027693  0.56532366  0.21436403    -0.16100
C2514       C  0.68536262  0.58042125  0.23426382    -0.31300
H2515       H  0.70581526  0.54444368  0.21383860     0.12900
H2516       H  0.66780980  0.59909739  0.23532571     0.13500
C2517       C  0.59455297  0.01915261  0.08008623    -0.16100
C2518       C  0.55973912  0.98495877  0.07099724    -0.31300
H2519       H  0.60917523  0.05278017  0.07198161     0.12900
H2520       H  0.52366315  0.46686391  0.08795756     0.13500
loop_ 
_geom_bond_atom_site_label_1 
_geom_bond_atom_site_label_2 
_geom_bond_distance 
_geom_bond_site_symmetry_2 
_ccdc_geom_bond_type 
C1            C2   1.408       .  A
C1          C636   1.415       .  A
C1          C627   1.484       .  S
C2            C3   1.388       .  A
C2            H7   1.084       .  S
C3            C4   1.409       .  A
C3           C98   1.478       .  S
C4          C635   1.404       .  A
C4            H8   1.082       .  S
C5            C6   1.413       .  A
C5          C634   1.409   1_545  A
C5           C12   1.510       .  S
C6          C631   1.409       .  A
C6            H9   1.081       .  S
C10          C11   1.404       .  A
C10          C15   1.410       .  A
C10         C623   1.478       .  S
C11          C12   1.408       .  A
C11          H16   1.083       .  S
C12          C13   1.408       .  A
C13          C14   1.420       .  A
C13          H17   1.082       .  S
C14          C15   1.403       .  A
C14          C79   1.493       .  S
C15          H18   1.083       .  S
C19          C20   1.408       .  A
C19          C24   1.409       .  A
C19         C620   1.492       .  S
C20          C21   1.402       .  A
C20        H1285   1.081       .  S
C21          C22   1.422       .  A
C21        C1343   1.494       .  S
C22          C23   1.422       .  A
C22          H26   1.083       .  S
C23          C24   1.408       .  A
C23          C32   1.521       .  S
C24          H27   1.082       .  S
H25        C1280   1.081   1_455  S
C28          C33   1.408       .  A
C28         C659   1.408   1_545  A
C28         C615   1.489       .  S
C29          C30   1.402       .  A
C29         C658   1.411       .  A
C29          H34   1.083       .  S
C30          C31   1.422       .  A
C30          C78   1.498       .  S
C31         C662   1.430       .  A
C31          H35   1.080       .  S
C32          C33   1.408       .  A
C32         C661   1.425   1_545  A
C33          H36   1.083       .  S
C37          C38   1.412       .  A
C37          C42   1.400       .  A
C37         C611   1.490       .  S
C38          C39   1.416       .  A
C38          H43   1.081       .  S
C39          C40   1.411       .  A
C39          C48   1.520       .  S
C40        C1301   1.418       .  A
C40        H1304   1.081       .  S
C41        C1300   1.412   1_455  A
C41        C1302   1.401   1_455  A
C41          C91   1.482       .  S
C42        C1301   1.401       .  A
C42        H1305   1.082       .  S
H44        C1300   1.080       .  S
H45        C1302   1.083       .  S
C46          C47   1.415       .  A
C46          C51   1.397       .  A
C46         C607   1.486       .  S
C47          C48   1.423       .  A
C47          H52   1.081       .  S
C48          C49   1.416       .  A
C49          C50   1.412       .  A
C49          H53   1.080       .  S
C50          C51   1.395       .  A
C50          C77   1.489       .  S
C51          H54   1.084       .  S
Zr55         O56   2.435       .  S
Zr55         O57   2.402       .  S
Zr55         O58   2.510       .  S
Zr55         O61   2.540       .  S
Zr55         O63   2.394       .  S
Zr55         O64   2.389       .  S
Zr55         O65   2.438       .  S
Zr55         O66   2.404       .  S
O56         H112   0.990       .  S
O56         H120   0.990       .  S
O57          C77   1.280       .  A
O58          C79   1.291       .  A
O59         Zr69   2.384       .  S
O59          C78   1.274       .  A
O60         Zr68   2.388       .  S
O60          C79   1.266       .  A
O61          C78   1.306       .  A
O62         Zr70   2.465       .  S
O62          C77   1.293       .  A
O63         Zr68   2.381       .  S
O63         Zr70   2.342       .  S
O64         Zr69   2.375       .  S
O64         Zr70   2.368       .  S
O64          H99   0.966       .  S
O65         Zr68   2.409       .  S
O65         Zr85   2.399       .  S
O65         H102   0.966       .  S
O66         Zr69   2.395       .  S
O66         Zr85   2.417       .  S
Zr67         O92   2.435       .  S
Zr67         O86   2.393       .  S
Zr67         O94   2.485       .  S
Zr67         O82   2.494       .  S
Zr67         O73   2.411       .  S
Zr67         O74   2.412       .  S
Zr67         O75   2.375       .  S
Zr67         O76   2.386       .  S
Zr68         O87   2.437       .  S
Zr68         O80   2.435       .  S
Zr68         O81   2.416       .  S
Zr68         O74   2.394       .  S
Zr68         O75   2.368       .  S
Zr69         O71   2.437       .  S
Zr69         O93   2.437       .  S
Zr69         O95   2.379       .  S
Zr69         O73   2.385       .  S
Zr69         O76   2.383       .  S
Zr70         O96   2.438       .  S
Zr70         O97   2.435       .  S
Zr70         O72   2.437       .  S
Zr70         O73   2.403       .  S
Zr70         O74   2.421       .  S
O71         H108   0.989       .  S
O72         H103   0.990       .  S
O72         H117   0.990       .  S
O74         H100   0.966       .  S
O75         Zr85   2.360       .  S
O76         Zr85   2.354       .  S
O76         H101   0.964       .  S
O80         H116   0.990       .  S
O81          C83   1.281       .  A
O82          C83   1.298       .  A
C83        C1281   1.492   1_455  S
O84         Zr85   2.434       .  S
O84         H113   0.990       .  S
Zr85         O88   2.435       .  S
Zr85         O89   2.438       .  S
Zr85         O90   2.464       .  S
O86          C91   1.279       .  A
O87         H104   0.990       .  S
O87         H119   0.990       .  S
O88         H105   0.990       .  S
O89         H109   0.990       .  S
O89         H118   0.989       .  S
O90          C91   1.290       .  A
O92         H111   0.990       .  S
O92         H115   0.990       .  S
O93         H107   0.990       .  S
O93         H114   0.990       .  S
O94          C98   1.296       .  A
O95          C98   1.276       .  A
O96         H106   0.990       .  S
O97         H110   0.990       .  S
Zr121       O122   2.444       .  S
Zr121       O123   2.454       .  S
Zr121       O124   2.408       .  S
Zr121       O127   2.399       .  S
Zr121       O129   2.376       .  S
Zr121       O130   2.379       .  S
Zr121       O131   2.418       .  S
Zr121       O132   2.403       .  S
O122        H178   0.990       .  S
O122        H186   0.990       .  S
O123        C143   1.285       .  A
O124        C145   1.279       .  A
O125       Zr135   2.455       .  S
O125        C144   1.283       .  A
O126       Zr134   2.476       .  S
O126        C145   1.291       .  A
O127        C144   1.276       .  A
O128       Zr136   2.435       .  S
O128        C143   1.283       .  A
O129       Zr134   2.410       .  S
O129       Zr136   2.376       .  S
O130       Zr135   2.399       .  S
O130       Zr136   2.372       .  S
O130        H165   0.966       .  S
O131       Zr134   2.413       .  S
O131       Zr151   2.404       .  S
O131        H168   0.965       .  S
O132       Zr135   2.403       .  S
O132       Zr151   2.398       .  S
Zr133       O158   2.441       .  S
Zr133       O152   2.430       .  S
Zr133       O160   2.404       .  S
Zr133       O148   2.379       .  S
Zr133       O139   2.400       .  S
Zr133       O140   2.404       .  S
Zr133       O141   2.369       .  S
Zr133       O142   2.379       .  S
Zr134       O153   2.435       .  S
Zr134       O146   2.435       .  S
Zr134       O147   2.495       .  S
Zr134       O140   2.399       .  S
Zr134       O141   2.393       .  S
Zr135       O137   2.436   1_545  S
Zr135       O159   2.438       .  S
Zr135       O161   2.462       .  S
Zr135       O139   2.390       .  S
Zr135       O142   2.403       .  S
Zr136       O162   2.434       .  S
Zr136       O163   2.436       .  S
Zr136       O138   2.437       .  S
Zr136       O139   2.397       .  S
Zr136       O140   2.398       .  S
O137        H174   0.990       .  S
O138        H169   0.990       .  S
O138        H183   0.990       .  S
O140        H166   0.965       .  S
O141       Zr151   2.373       .  S
O142       Zr151   2.377       .  S
O142        H167   0.966       .  S
C143        C599   1.487       .  S
C144        C604   1.474       .  S
C145        C595   1.490       .  S
O146        H182   0.990       .  S
O147        C149   1.296       .  A
O148        C149   1.277       .  A
C149        C612   1.489       .  S
O150       Zr151   2.437       .  S
O150        H179   0.990       .  S
Zr151       O154   2.436       .  S
Zr151       O155   2.438   1_545  S
Zr151       O156   2.432       .  S
O152        C157   1.283       .  A
O153        H170   0.990       .  S
O153        H185   0.990       .  S
O154        H171   0.990       .  S
O155        H184   0.990       .  S
O155        H805   0.990       .  S
O156        C157   1.281       .  A
C157        C616   1.479       .  S
O158        H177   0.990       .  S
O158        H181   0.990       .  S
O159        H173   0.990       .  S
O159        H180   0.990       .  S
O160        C164   1.275       .  A
O161        C164   1.286       .  A
O162        H172   0.990       .  S
O163        H176   0.990       .  S
C164        C624   1.476       .  S
H175        O785   0.990       .  S
C187        C188   1.412       .  A
C187        C192   1.403       .  A
C187        C592   1.483       .  S
C188        C189   1.411       .  A
C188        H193   1.079       .  S
C189        C190   1.432       .  A
C189        C198   1.543       .  S
C190        C191   1.427       .  A
C190        H824   1.078       .  S
C191        C192   1.400       .  A
C191        C265   1.502       .  S
C192        H195   1.083       .  S
H194        C820   1.078       .  S
C196        C197   1.408       .  A
C196        C201   1.404       .  A
C196       C1233   1.480       .  S
C197        C198   1.409       .  A
C197        H202   1.079       .  S
C198        C199   1.433       .  A
C199        C200   1.431       .  A
C199        H203   1.079       .  S
C200        C201   1.394       .  A
C200        C284   1.500       .  S
C201        H204   1.082       .  S
C205        C206   1.399       .  A
C205        C210   1.414       .  A
C205        C587   1.490       .  S
C206        C207   1.390       .  A
C206        H211   1.084       .  S
C207        C208   1.409       .  A
C207        C277   1.476       .  S
C208        C209   1.407       .  A
C208        H212   1.077       .  S
C209        C210   1.430       .  A
C209        C216   1.525       .  S
C210        H213   1.079       .  S
C214        C215   1.416       .  A
C214        C219   1.400       .  A
C214        C600   1.500       .  S
C215        C216   1.431       .  A
C215        H220   1.079       .  S
C216        C217   1.406       .  A
C217        C218   1.404       .  A
C217        H221   1.078       .  S
C218        C219   1.396       .  A
C218        C263   1.473       .  S
C219        H222   1.083       .  S
C223        C224   1.410       .  A
C223        C228   1.411       .  A
C223        C584   1.490       .  S
C224        C225   1.414       .  A
C224        H229   1.079       .  S
C225        C226   1.418       .  A
C225       C1496   1.532       .  S
C226        C227   1.417       .  A
C226        H230   1.080       .  S
C227        C228   1.403       .  A
C227        C264   1.484       .  S
C228        H231   1.083       .  S
C232        C233   1.411       .  A
C232        C237   1.411       .  A
C232        C596   1.488       .  S
C233       C1494   1.406       .  A
C233        H238   1.083       .  S
C234        C235   1.420       .  A
C234       C1493   1.408       .  A
C234       C1529   1.498       .  S
C235        C236   1.421       .  A
C235        H239   1.079   1_655  S
C236       C1497   1.411       .  A
C236       C1485   1.533       .  S
C237       C1496   1.411       .  A
C237        H240   1.080       .  S
Zr241       O242   2.435       .  S
Zr241       O243   2.393       .  S
Zr241       O244   2.514       .  S
Zr241       O247   2.517       .  S
Zr241       O249   2.381       .  S
Zr241       O250   2.389       .  S
Zr241       O251   2.409       .  S
Zr241       O252   2.411       .  S
O242        H298   0.990       .  S
O242        H306   0.990       .  S
O243        C263   1.279       .  A
O244        C265   1.302       .  A
O245       Zr255   2.367       .  S
O245        C264   1.273       .  A
O246       Zr884   2.409       .  S
O246        C265   1.278       .  A
O247        C264   1.301       .  A
O248       Zr256   2.441       .  S
O248        C263   1.287       .  A
O249       Zr256   2.369       .  S
O249       Zr884   2.377       .  S
O250       Zr255   2.381       .  S
O250       Zr256   2.372       .  S
O250        H285   0.965       .  S
O251       Zr884   2.395       .  S
O251       Zr901   2.412       .  S
O251        H288   0.966       .  S
O252       Zr255   2.389       .  S
O252       Zr901   2.406       .  S
Zr253       O278   2.433       .  S
Zr253       O272   2.368       .  S
Zr253       O280   2.522       .  S
Zr253       O268   2.537       .  S
Zr253      O2149   2.406   1_545  S
Zr253      O1520   2.421   1_455  S
Zr253      O1521   2.382   1_455  S
Zr253       O892   2.387       .  S
Zr254       O273   2.438       .  S
Zr254       O266   2.438       .  S
Zr254       O267   2.398       .  S
Zr254       O876   2.402   1_545  S
Zr254       O260   2.407       .  S
Zr254       O261   2.369       .  S
Zr254       O879   2.373   1_545  S
Zr254       O881   2.400   1_545  S
Zr255       O279   2.438       .  S
Zr255      O1517   2.436       .  S
Zr255      O1541   2.388       .  S
Zr255       O259   2.394       .  S
Zr255      O1522   2.370       .  S
Zr256       O282   2.437       .  S
Zr256       O283   2.438       .  S
Zr256       O258   2.442       .  S
Zr256       O259   2.410       .  S
Zr256       O890   2.400       .  S
O257      Zr1515   2.437       .  S
O257        H294   0.990       .  S
O258        H289   0.989       .  S
O258        H303   0.990       .  S
O259      Zr2143   2.398       .  S
O260      Zr1513   2.423       .  S
O260       Zr886   2.397   1_545  S
O260        H286   0.966       .  S
O261       Zr271   2.340       .  S
O261      Zr1513   2.385       .  S
O262       Zr883   2.381       .  S
O262      Zr1515   2.374       .  S
O262      Zr2161   2.353   1_455  S
O262        H917   0.964       .  S
O266        H932   0.990       .  S
O267        C269   1.269       .  A
O268       C1529   1.298   1_455  A
C269       C1494   1.497       .  S
C269       O1528   1.295       .  A
O270       Zr901   2.435       .  S
O270        H929   0.990       .  S
Zr271       O274   2.438       .  S
Zr271       O900   2.438       .  S
Zr271      O2165   2.439       .  S
Zr271      O1536   2.462       .  S
Zr271       O881   2.414   1_545  S
Zr271       O882   2.407   1_545  S
Zr271      O2152   2.371       .  S
O272        C277   1.274       .  A
O273        H290   0.990       .  S
O273        H305   0.990       .  S
O274       H1551   0.990       .  S
O275      Zr2161   2.443   1_455  S
O275        H304   0.989       .  S
O275        H925   0.990       .  S
O276      Zr1531   2.466   1_455  S
O276        C277   1.292       .  A
O278        H297   0.990       .  S
O278        H301   0.990       .  S
O279        H300   0.990       .  S
O279       H1553   0.990       .  S
O280        C914   1.305   1_545  A
O281      Zr1515   2.375       .  S
O281        C284   1.273       .  A
O282        H292   0.990       .  S
O283        H296   0.990       .  S
C284        O910   1.310       .  A
H287        O892   0.965       .  S
H291       O1534   0.990   1_455  S
H293       O1539   0.990   1_655  S
H295        O905   0.990   1_565  S
H299        O900   0.990       .  S
H302        O896   0.990       .  S
C307        C308   1.397       .  A
C307        C312   1.411       .  A
C307        C580   1.483       .  S
C308        C309   1.391       .  A
C308        H313   1.085       .  S
C309        C310   1.413       .  A
C309        C384   1.470       .  S
C310        C311   1.416       .  A
C310        H314   1.081       .  S
C311        C312   1.422       .  A
C311        C320   1.518       .  S
C312        H315   1.082       .  S
C316        C317   1.405       .  A
C316        C321   1.415       .  A
C316        C576   1.493       .  S
C317        C318   1.396       .  A
C317        H952   1.084       .  S
C318        C319   1.411       .  A
C318       C1019   1.479       .  S
C319        C320   1.409       .  A
C319        H323   1.083       .  S
C320        C321   1.421       .  A
C321        H324   1.078       .  S
H322        C947   1.084   1_545  S
C325        C326   1.403       .  A
C325        C330   1.412       .  A
C325        C572   1.488       .  S
C326        C327   1.399       .  A
C326        H331   1.084       .  S
C327        C328   1.418       .  A
C327       C1015   1.493       .  S
C328        C329   1.424       .  A
C328        H332   1.079       .  S
C329        C330   1.413       .  A
C329        C338   1.528       .  S
C330        H333   1.080       .  S
C334        C335   1.408       .  A
C334       C1599   1.409       .  A
C334        C567   1.490       .  S
C335        C336   1.399       .  A
C335        H340   1.081       .  S
C336        C337   1.420       .  A
C336        C404   1.489       .  S
C337       C1598   1.420       .  A
C337        H341   1.082       .  S
C338        C339   1.414       .  A
C338       C1597   1.421   1_455  A
C339       C1594   1.411   1_455  A
C339        H342   1.079       .  S
C343        C344   1.402       .  A
C343        C348   1.398       .  A
C343        C563   1.468       .  S
C344        C345   1.401       .  A
C344        H349   1.084       .  S
C345        C346   1.416       .  A
C345        C383   1.488       .  S
C346        C347   1.414       .  A
C346        H350   1.079       .  S
C347        C348   1.408       .  A
C347       C1614   1.514       .  S
C348        H351   1.081   1_455  S
C352        C353   1.412       .  A
C352        C357   1.401       .  A
C352        C559   1.486       .  S
C353        C354   1.415       .  A
C353       H1618   1.078       .  S
C354        C355   1.417       .  A
C354       C1607   1.526       .  S
C355        C356   1.409       .  A
C355        H359   1.076       .  S
C356        C357   1.396       .  A
C356        C397   1.484       .  S
C357        H360   1.080       .  S
H358       C1613   1.080       .  S
Zr361       O362   2.435       .  S
Zr361       O363   2.393       .  S
Zr361       O364   2.519       .  S
Zr361       O367   2.483       .  S
Zr361       O369   2.377       .  S
Zr361       O370   2.404       .  S
Zr361       O371   2.410       .  S
Zr361       O372   2.417       .  S
O362        H418   0.990       .  S
O362        H426   0.990       .  S
O363        C383   1.279       .  A
O364        C385   1.302       .  A
O365       Zr375   2.380       .  S
O365        C384   1.268       .  A
O366       Zr374   2.403       .  S
O366        C385   1.276       .  A
O367        C384   1.290       .  A
O368       Zr376   2.476       .  S
O368        C383   1.293       .  A
O369       Zr374   2.371       .  S
O369       Zr376   2.365       .  S
O370       Zr375   2.391       .  S
O370       Zr376   2.363       .  S
O370        H405   0.965       .  S
O371       Zr374   2.403       .  S
O371       Zr391   2.416       .  S
O371        H408   0.966       .  S
O372       Zr375   2.392       .  S
O372       Zr391   2.397       .  S
Zr373       O398   2.435       .  S
Zr373       O392   2.402       .  S
Zr373       O400   2.495       .  S
Zr373       O388   2.479       .  S
Zr373       O379   2.403       .  S
Zr373       O380   2.425       .  S
Zr373       O381   2.363       .  S
Zr373       O382   2.381       .  S
Zr374       O393   2.443   1_545  S
Zr374       O386   2.435       .  S
Zr374       O387   2.388       .  S
Zr374       O380   2.395       .  S
Zr374       O381   2.363       .  S
Zr375       O377   2.435       .  S
Zr375       O399   2.427       .  S
Zr375       O401   2.400       .  S
Zr375       O379   2.389       .  S
Zr375       O382   2.361       .  S
Zr376       O402   2.437       .  S
Zr376       O403   2.435       .  S
Zr376       O378   2.438       .  S
Zr376       O379   2.419       .  S
Zr376       O380   2.415       .  S
O377        H414   0.990       .  S
O378        H409   0.990       .  S
O378        H423   0.990       .  S
O380        H406   0.966       .  S
O381       Zr391   2.336       .  S
O382       Zr391   2.371       .  S
O382        H407   0.966       .  S
C385        C957   1.499   1_545  S
O386        H422   0.990       .  S
O387        C389   1.277       .  A
O388        C389   1.295       .  A
C389        C948   1.474   1_545  S
O390       Zr391   2.434       .  S
O390        H419   0.990       .  S
Zr391       O394   2.436       .  S
Zr391       O395   2.437       .  S
Zr391       O396   2.460       .  S
O392        C397   1.281       .  A
O393        H425   0.990       .  S
O393       H1040   0.990       .  S
O394        H411   0.990       .  S
O395        H415   0.990       .  S
O395        H424   0.990       .  S
O396        C397   1.291       .  A
O398        H417   0.990       .  S
O398        H421   0.990       .  S
O399        H413   0.990       .  S
O399        H420   0.990       .  S
O400        C404   1.297       .  A
O401        C404   1.277       .  A
O402        H412   0.990       .  S
O403        H416   0.990       .  S
H410       O1023   0.990       .  S
Zr427      O1688   2.439       .  S
Zr427       O429   2.431       .  S
Zr427       O430   2.410       .  S
Zr427      O2323   2.397       .  S
Zr427       O435   2.378       .  S
Zr427       O437   2.399       .  S
Zr427      O1066   2.373       .  S
Zr427      O2328   2.401       .  S
O428      Zr1687   2.440   1_455  S
O428        H484   0.990       .  S
O428        H492   0.990       .  S
O429        C449   1.282       .  A
O430        C451   1.282       .  A
O431      Zr1701   2.448   1_455  S
O431        C450   1.285       .  A
O432       Zr440   2.450       .  S
O432        C451   1.287       .  A
O433      Zr2317   2.385   1_445  S
O433        C450   1.276       .  A
O434       Zr442   2.458       .  S
O434        C449   1.287       .  A
O435       Zr440   2.405       .  S
O435       Zr442   2.380       .  S
O436       Zr441   2.401       .  S
O436      Zr1057   2.379   1_545  S
O436      Zr1072   2.376   1_545  S
O436        H471   0.966       .  S
O437       Zr440   2.403       .  S
O437      Zr1717   2.396       .  S
O437       H1734   0.966       .  S
O438      Zr2317   2.409   1_445  S
O438      Zr1701   2.400   1_455  S
O438      Zr1087   2.407   1_545  S
Zr439       O464   2.436       .  S
Zr439       O458   2.403       .  S
Zr439       O454   2.408       .  S
Zr439      O1096   2.420       .  S
Zr439       O446   2.402   1_554  S
Zr439       O447   2.375       .  S
Zr439      O1075   2.392   1_554  S
Zr439      O2338   2.381       .  S
Zr440       O459   2.438       .  S
Zr440       O452   2.436       .  S
Zr440       O453   2.473   1_556  S
Zr440       O446   2.402       .  S
Zr440       O447   2.374   1_556  S
Zr441       O465   2.436       .  S
Zr441      O1703   2.437       .  S
Zr441       O467   2.462   1_556  S
Zr441      O1691   2.460       .  S
Zr441       O445   2.398   1_545  S
Zr441      O1698   2.392       .  S
Zr441      O1708   2.392   1_556  S
Zr442       O469   2.437       .  S
Zr442       O444   2.439       .  S
Zr442      O1098   2.436       .  S
Zr442       O446   2.415       .  S
Zr442      O1066   2.369       .  S
Zr442      O1075   2.412       .  S
O443      Zr1701   2.438   1_455  S
O443        H480   0.990       .  S
O444        H475   0.990       .  S
O444        H489   0.989       .  S
O445      Zr1069   2.397   1_556  S
O445      Zr1072   2.400       .  S
O446        H472   0.966       .  S
O447      Zr1717   2.359   1_554  S
O448      Zr2329   2.376   1_445  S
O448      Zr1701   2.374   1_454  S
O448      Zr1087   2.363   1_544  S
O448        H473   0.965       .  S
C449        C575   1.483       .  S
C450        C564   1.469       .  S
C451        C568   1.480       .  S
O452        H488   0.990       .  S
O453        C455   1.290       .  A
O454        C455   1.280       .  A
C455        C608   1.475       .  S
O456       Zr457   2.436       .  S
O456        H485   0.990       .  S
Zr457       O460   2.435       .  S
Zr457      O1091   2.437       .  S
Zr457       O462   2.414   1_556  S
Zr457      O1697   2.387   1_455  S
Zr457      O1068   2.388       .  S
Zr457      O1707   2.377   1_456  S
Zr457      O1078   2.368   1_556  S
O458       C1723   1.279       .  A
O459        H476   0.990       .  S
O459        H491   0.990       .  S
O460        H477   0.990       .  S
O461      Zr1087   2.439   1_545  S
O461        H481   0.990   1_556  S
O461        H490   0.990       .  S
O462        C463   1.280       .  A
C463        C628   1.470       .  S
C463       O1718   1.284       .  A
O464        H483   0.990       .  S
O464        H487   0.990       .  S
O465        H479   0.990       .  S
O465        H486   0.990       .  S
O466      Zr1069   2.405   1_545  S
O466        C470   1.282       .  A
O467        C470   1.289       .  A
O468      Zr1072   2.435       .  S
O468       H1108   0.990   1_565  S
O469        H482   0.990       .  S
C470        C619   1.483       .  S
H474       O1697   0.965   1_455  S
H478       O1098   0.990       .  S
Zr493       O494   2.445       .  S
Zr493       O495   2.416       .  S
Zr493       O496   2.406       .  S
Zr493       O499   2.398       .  S
Zr493       O501   2.374       .  S
Zr493       O502   2.378       .  S
Zr493       O503   2.400       .  S
Zr493       O504   2.394       .  S
O494        H550   0.990       .  S
O494        H558   0.990       .  S
O495        C515   1.280       .  A
O496        C517   1.279       .  A
O497       Zr507   2.456       .  S
O497        C516   1.287       .  A
O498       Zr506   2.465       .  S
O498        C517   1.290       .  A
O499        C516   1.280       .  A
O500       Zr508   2.451       .  S
O500        C515   1.286       .  A
O501       Zr506   2.397       .  S
O501       Zr508   2.370       .  S
O502       Zr507   2.395       .  S
O502       Zr508   2.373       .  S
O502        H537   0.966       .  S
O503       Zr506   2.404       .  S
O503       Zr523   2.401       .  S
O503        H540   0.966       .  S
O504       Zr507   2.405       .  S
O504       Zr523   2.393       .  S
Zr505       O530   2.440       .  S
Zr505       O524   2.439       .  S
Zr505       O532   2.407       .  S
Zr505       O520   2.372       .  S
Zr505       O511   2.396       .  S
Zr505       O512   2.402       .  S
Zr505       O513   2.378       .  S
Zr505       O514   2.373       .  S
Zr506       O525   2.438       .  S
Zr506       O518   2.434       .  S
Zr506       O519   2.486       .  S
Zr506       O512   2.397       .  S
Zr506       O513   2.385       .  S
Zr507       O509   2.437   1_455  S
Zr507      O1791   2.441   1_455  S
Zr507       O533   2.470   1_455  S
Zr507       O511   2.397       .  S
Zr507       O514   2.390       .  S
Zr508       O534   2.438       .  S
Zr508       O535   2.437       .  S
Zr508       O510   2.440       .  S
Zr508       O511   2.405       .  S
Zr508       O512   2.407       .  S
O509       H1806   0.990       .  S
O510        H541   0.990       .  S
O510        H555   0.990       .  S
O512        H538   0.966       .  S
O513       Zr523   2.368       .  S
O514       Zr523   2.376       .  S
O514        H539   0.966       .  S
C515        C571   1.478       .  S
C516        C560   1.477   1_455  S
C517        C579   1.473       .  S
O518        H554   0.990       .  S
O519        C521   1.293       .  A
O520        C521   1.275       .  A
C521        C591   1.488       .  S
O522       Zr523   2.436       .  S
O522        H551   0.989       .  S
Zr523       O526   2.434       .  S
Zr523       O527   2.436       .  S
Zr523       O528   2.434       .  S
O524        C529   1.285       .  A
O525        H542   0.990       .  S
O525        H557   0.990       .  S
O526        H543   0.990       .  S
O527        H547   0.990       .  S
O527        H556   0.990       .  S
O528        C529   1.284       .  A
C529        C588   1.479       .  S
O530        H549   0.990       .  S
O530        H553   0.990       .  S
O531      Zr1767   2.438       .  S
O531        H545   0.990       .  S
O531       H1812   0.990       .  S
O532        C536   1.281   1_455  A
O533        C536   1.290       .  A
O534        H544   0.990   1_455  S
O535        H548   0.990       .  S
C536       C1843   1.485       .  S
H546       O1769   0.990       .  S
H552       O1791   0.990       .  S
C559       C1820   1.355       .  D
C559       H1821   1.087       .  S
C560       C1819   1.352   1_655  D
C560       H1822   1.084       .  S
H561       C1819   1.088       .  S
H562       C1820   1.084       .  S
C563        C564   1.344       .  D
C563        H565   1.089   1_455  S
C564        H566   1.086       .  S
C567        C568   1.350       .  D
C567        H569   1.088       .  S
C568        H570   1.083       .  S
C571        C572   1.345       .  D
C571        H573   1.086       .  S
C572        H574   1.087       .  S
C575        C576   1.347       .  D
C575        H577   1.087       .  S
C576        H578   1.086       .  S
C579        C580   1.340       .  D
C579        H581   1.087       .  S
C580        H582   1.089       .  S
C583       C1796   1.480       .  S
C583        C584   1.347       .  D
C583       H1845   1.086       .  S
C584        H586   1.088       .  S
H585       C1843   1.086       .  S
C587        C588   1.350       .  D
C587        H589   1.086       .  S
C588        H590   1.088       .  S
C591        C592   1.358       .  D
C591        H593   1.085       .  S
C592        H594   1.087       .  S
C595        C596   1.354       .  D
C595        H597   1.085       .  S
C596        H598   1.088       .  S
C599        C600   1.353       .  D
C599        H601   1.086       .  S
C600        H602   1.086       .  S
C603        C826   1.478       .  S
C603        C604   1.349       .  D
C603       H1235   1.086       .  S
C604        H606   1.085       .  S
H605       C1233   1.086       .  S
C607        C608   1.339       .  D
C607        H609   1.088       .  S
C608        H610   1.087       .  S
C611        C612   1.360       .  D
C611        H613   1.087       .  S
C612        H614   1.085       .  S
C615        C616   1.347       .  D
C615        H617   1.087       .  S
C616        H618   1.086   1_545  S
C619        C620   1.352       .  D
C619        H621   1.083       .  S
C620        H622   1.088       .  S
C623        C624   1.345       .  D
C623        H625   1.088       .  S
C624        H626   1.086       .  S
C627        C628   1.347       .  D
C627        H629   1.086       .  S
C628       H1260   1.088       .  S
H630       C1258   1.088       .  S
C631        C632   1.401   1_545  A
C631       C1257   1.467       .  S
C632        C633   1.389       .  A
C632        H637   1.085       .  S
C633        C634   1.412       .  A
C633        C728   1.474       .  S
C634        H638   1.082       .  S
C635        C636   1.414       .  A
C635        C642   1.504       .  S
C636        H639   1.083       .  S
C640        C641   1.400       .  A
C640        C645   1.405       .  A
C640       C1253   1.469       .  S
C641        C642   1.406       .  A
C641        H646   1.084       .  S
C642        C643   1.407       .  A
C643        C644   1.423       .  A
C643        H647   1.083       .  S
C644        C645   1.399       .  A
C644        C709   1.487       .  S
C645        H648   1.084       .  S
C649        C650   1.411       .  A
C649        C654   1.407       .  A
C649       C1250   1.493       .  S
C650        C651   1.405       .  A
C650       H1915   1.082       .  S
C651        C652   1.426       .  A
C651       C1973   1.498       .  S
C652        C653   1.426       .  A
C652        H656   1.082       .  S
C653        C654   1.407       .  A
C653        C662   1.529       .  S
C654        H657   1.081       .  S
H655       C1910   1.080   1_455  S
C658        C663   1.411       .  A
C658       C1245   1.492       .  S
C659        C660   1.400       .  A
C659        H664   1.083       .  S
C660        C661   1.419       .  A
C660        C708   1.489       .  S
C661        H665   1.082       .  S
C662        C663   1.409       .  A
C663        H666   1.083       .  S
C667        C668   1.411       .  A
C667        C672   1.400       .  A
C667       C1241   1.482       .  S
C668        C669   1.413       .  A
C668        H673   1.080       .  S
C669        C670   1.410       .  A
C669        C678   1.519       .  S
C670       C1931   1.411       .  A
C670       H1934   1.078       .  S
C671       C1930   1.419   1_455  A
C671       C1932   1.404   1_455  A
C671        C721   1.488       .  S
C672       C1931   1.399       .  A
C672       H1935   1.082       .  S
H674       C1930   1.081       .  S
H675       C1932   1.081   1_455  S
C676        C677   1.405       .  A
C676        C681   1.403       .  A
C676       C1237   1.483       .  S
C677        C678   1.417       .  A
C677        H682   1.079       .  S
C678        C679   1.415       .  A
C679        C680   1.414       .  A
C679        H683   1.079       .  S
C680        C681   1.403       .  A
C680        C707   1.493       .  S
C681        H684   1.083       .  S
Zr685       O686   2.437       .  S
Zr685       O687   2.410       .  S
Zr685       O688   2.512       .  S
Zr685       O691   2.512       .  S
Zr685       O693   2.378       .  S
Zr685       O694   2.391       .  S
Zr685       O695   2.436       .  S
Zr685       O696   2.411       .  S
O686        H742   0.990       .  S
O686        H750   0.990       .  S
O687        C707   1.282       .  A
O688        C709   1.293       .  A
O689       Zr699   2.391       .  S
O689        C708   1.276       .  A
O690       Zr698   2.383       .  S
O690        C709   1.265       .  A
O691        C708   1.301       .  A
O692       Zr700   2.472       .  S
O692        C707   1.293       .  A
O693       Zr698   2.375       .  S
O693       Zr700   2.335       .  S
O694       Zr699   2.371       .  S
O694       Zr700   2.370       .  S
O694        H729   0.965       .  S
O695       Zr698   2.406       .  S
O695       Zr715   2.408       .  S
O695        H732   0.965       .  S
O696       Zr699   2.396       .  S
O696       Zr715   2.415       .  S
Zr697       O722   2.435       .  S
Zr697       O716   2.399       .  S
Zr697       O724   2.488       .  S
Zr697       O712   2.498       .  S
Zr697       O703   2.420       .  S
Zr697       O704   2.412       .  S
Zr697       O705   2.373       .  S
Zr697       O706   2.387       .  S
Zr698       O717   2.438       .  S
Zr698       O710   2.434       .  S
Zr698       O711   2.404       .  S
Zr698       O704   2.397       .  S
Zr698       O705   2.362       .  S
Zr699       O701   2.437       .  S
Zr699       O723   2.438       .  S
Zr699       O725   2.382       .  S
Zr699       O703   2.389       .  S
Zr699       O706   2.388       .  S
Zr700       O726   2.438       .  S
Zr700       O727   2.435       .  S
Zr700       O702   2.438       .  S
Zr700       O703   2.411       .  S
Zr700       O704   2.428       .  S
O701        H738   0.991       .  S
O702        H733   0.990       .  S
O702        H747   0.990       .  S
O704        H730   0.966       .  S
O705       Zr715   2.359       .  S
O706       Zr715   2.350       .  S
O706        H731   0.964       .  S
O710        H746   0.990       .  S
O711        C713   1.277       .  A
O712        C713   1.299       .  A
C713       C1911   1.492   1_455  S
O714       Zr715   2.436       .  S
O714        H743   0.990       .  S
Zr715       O718   2.435       .  S
Zr715       O719   2.441       .  S
Zr715       O720   2.468       .  S
O716        C721   1.279       .  A
O717        H734   0.990       .  S
O717        H749   0.990       .  S
O718        H735   0.991       .  S
O719        H739   0.990       .  S
O719        H748   0.990       .  S
O720        C721   1.293       .  A
O722        H741   0.990       .  S
O722        H745   0.990       .  S
O723        H737   0.990       .  S
O723        H744   0.990       .  S
O724        C728   1.296       .  A
O725        C728   1.276       .  A
O726        H736   0.990       .  S
O727        H740   0.990       .  S
Zr751       O752   2.443       .  S
Zr751       O753   2.455       .  S
Zr751       O754   2.424       .  S
Zr751       O757   2.400       .  S
Zr751       O759   2.377       .  S
Zr751       O760   2.385       .  S
Zr751       O761   2.409       .  S
Zr751       O762   2.402       .  S
O752        H808   0.990       .  S
O752        H816   0.991       .  S
O753        C773   1.287       .  A
O754        C775   1.282       .  A
O755       Zr765   2.452       .  S
O755        C774   1.283       .  A
O756       Zr764   2.445       .  S
O756        C775   1.285       .  A
O757        C774   1.276       .  A
O758       Zr766   2.426       .  S
O758        C773   1.282       .  A
O759       Zr764   2.405       .  S
O759       Zr766   2.383       .  S
O760       Zr765   2.395       .  S
O760       Zr766   2.374       .  S
O760        H795   0.966       .  S
O761       Zr764   2.408       .  S
O761       Zr781   2.398       .  S
O761        H798   0.965       .  S
O762       Zr765   2.395       .  S
O762       Zr781   2.394       .  S
Zr763       O788   2.441       .  S
Zr763       O782   2.429       .  S
Zr763       O790   2.398       .  S
Zr763       O778   2.387       .  S
Zr763       O769   2.405       .  S
Zr763       O770   2.400       .  S
Zr763       O771   2.371       .  S
Zr763       O772   2.380       .  S
Zr764       O783   2.436       .  S
Zr764       O776   2.436       .  S
Zr764       O777   2.473       .  S
Zr764       O770   2.393       .  S
Zr764       O771   2.394       .  S
Zr765       O767   2.436       .  S
Zr765       O789   2.438       .  S
Zr765       O791   2.455       .  S
Zr765       O769   2.389       .  S
Zr765       O772   2.399       .  S
Zr766       O792   2.436       .  S
Zr766       O793   2.440       .  S
Zr766       O768   2.438       .  S
Zr766       O769   2.390       .  S
Zr766       O770   2.386       .  S
O767        H804   0.990       .  S
O768        H799   0.990       .  S
O768        H813   0.990       .  S
O770        H796   0.965       .  S
O771       Zr781   2.379       .  S
O772       Zr781   2.372       .  S
O772        H797   0.966       .  S
C773       C1229   1.481       .  S
C774       C1234   1.477       .  S
C775       C1225   1.480       .  S
O776        H812   0.990       .  S
O777        C779   1.291       .  A
O778        C779   1.278       .  A
C779       C1242   1.482       .  S
O780       Zr781   2.438       .  S
O780        H809   0.990       .  S
Zr781       O784   2.435       .  S
Zr781       O785   2.437       .  S
Zr781       O786   2.436       .  S
O782        C787   1.284       .  A
O783        H800   0.990       .  S
O783        H815   0.990       .  S
O784        H801   0.990       .  S
O785        H814   0.990       .  S
O786        C787   1.283       .  A
C787       C1246   1.482       .  S
O788        H807   0.990       .  S
O788        H811   0.990       .  S
O789        H803   0.990       .  S
O789        H810   0.990       .  S
O790        C794   1.276       .  A
O791        C794   1.285       .  A
O792        H802   0.990       .  S
O793        H806   0.990       .  S
C794       C1254   1.470       .  S
C817        C818   1.405       .  A
C817        C822   1.405       .  A
C817       C1222   1.475       .  S
C818        C819   1.407       .  A
C818        H823   1.079       .  S
C819        C820   1.431       .  A
C819        C828   1.538       .  S
C820        C821   1.428       .  A
C821        C822   1.400       .  A
C821        C895   1.506       .  S
C822        H825   1.083       .  S
C826        C827   1.406   1_545  A
C826        C831   1.403       .  A
C827        C828   1.409       .  A
C827        H832   1.079       .  S
C828        C829   1.432       .  A
C829        C830   1.427   1_565  A
C829        H833   1.078       .  S
C830        C831   1.393       .  A
C830        C914   1.498   1_545  S
C831        H834   1.082       .  S
C835        C836   1.399       .  A
C835        C840   1.414       .  A
C835       C1217   1.490       .  S
C836        C837   1.387       .  A
C836        H841   1.084       .  S
C837        C838   1.408       .  A
C837        C907   1.473       .  S
C838        C839   1.408       .  A
C838        H842   1.079       .  S
C839        C840   1.429       .  A
C839        C846   1.522       .  S
C840        H843   1.080       .  S
C844        C845   1.414       .  A
C844        C849   1.399       .  A
C844       C1230   1.496       .  S
C845        C846   1.429       .  A
C845        H850   1.079       .  S
C846        C847   1.406       .  A
C847        C848   1.406       .  A
C847        H851   1.079       .  S
C848        C849   1.394       .  A
C848        C893   1.473       .  S
C849        H852   1.083       .  S
C853        C854   1.405       .  A
C853        C858   1.409       .  A
C853       C1214   1.484       .  S
C854        C855   1.408       .  A
C854        H859   1.079       .  S
C855        C856   1.423       .  A
C855       C2126   1.530       .  S
C856        C857   1.422       .  A
C856        H860   1.081       .  S
C857        C858   1.404       .  A
C857        C894   1.487       .  S
C858        H861   1.084       .  S
C862        C863   1.410       .  A
C862        C867   1.407       .  A
C862       C1226   1.481       .  S
C863       C2124   1.403       .  A
C863        H868   1.083       .  S
C864       C2123   1.406       .  A
C864        C865   1.423       .  A
C864       C2159   1.492       .  S
C865        C866   1.427       .  A
C865        H869   1.078       .  S
C866       C2127   1.408       .  A
C866       C2115   1.535       .  S
C867       C2126   1.406       .  A
C867        H870   1.081       .  S
Zr871       O872   2.434       .  S
Zr871       O873   2.387       .  S
Zr871       O874   2.518       .  S
Zr871       O877   2.530       .  S
Zr871       O879   2.382       .  S
Zr871       O880   2.386       .  S
Zr871       O881   2.413       .  S
Zr871       O882   2.414       .  S
O872        H928   0.990       .  S
O872        H936   0.990       .  S
O873        C893   1.277       .  A
O874        C895   1.303       .  A
O875       Zr885   2.369       .  S
O875        C894   1.272       .  A
O876        C895   1.278       .  A
O877        C894   1.304       .  A
O878       Zr886   2.444       .  S
O878        C893   1.287       .  A
O879       Zr886   2.368       .  S
O880       Zr885   2.386       .  S
O880       Zr886   2.361       .  S
O880        H915   0.965       .  S
O881        H918   0.966       .  S
O882       Zr885   2.393       .  S
Zr883       O908   2.435       .  S
Zr883       O902   2.355       .  S
Zr883       O910   2.549       .  S
Zr883       O898   2.543       .  S
Zr883      O1519   2.399       .  S
Zr883      O2150   2.409   1_455  S
Zr883      O2151   2.386   1_455  S
Zr884       O903   2.442       .  S
Zr884       O896   2.438       .  S
Zr884       O897   2.397       .  S
Zr884       O890   2.411       .  S
Zr884       O891   2.370       .  S
Zr885      O2147   2.436       .  S
Zr885       O909   2.440       .  S
Zr885      O2171   2.393       .  S
Zr885       O889   2.396       .  S
Zr885      O2152   2.370   1_565  S
Zr886       O912   2.438       .  S
Zr886       O913   2.436       .  S
Zr886       O888   2.437       .  S
Zr886       O889   2.410       .  S
O887      Zr2145   2.436       .  S
O887        H924   0.990       .  S
O888        H919   0.990       .  S
O888        H933   0.990       .  S
O889      Zr1513   2.397   1_565  S
O890      Zr2143   2.426       .  S
O890        H916   0.966       .  S
O891      Zr2143   2.382       .  S
O891       Zr901   2.337       .  S
O892      Zr2145   2.373   1_545  S
O892      Zr1531   2.362   1_455  S
O897        C899   1.268       .  A
O898       C2159   1.307   1_455  A
C899       C2124   1.499       .  S
C899       O2158   1.296       .  A
Zr901       O904   2.436       .  S
Zr901      O1535   2.437       .  S
Zr901      O2166   2.468       .  S
Zr901      O1522   2.369       .  S
O902        C907   1.272       .  A
O903        H920   0.990       .  S
O903        H935   0.990       .  S
O904       H2181   0.990       .  S
O905      Zr1531   2.438   1_455  S
O905        H934   0.990       .  S
O906      Zr2161   2.480   1_455  S
O906        C907   1.295       .  A
O908        H927   0.990       .  S
O908        H931   0.990       .  S
O909       H2183   0.990       .  S
O909        H930   0.990       .  S
O911      Zr2145   2.388       .  S
O911        C914   1.275       .  A
O912        H922   0.990       .  S
O913        H926   0.990       .  S
H921       O2164   0.990   1_455  S
H923       O2169   0.990       .  S
C937        C938   1.405       .  A
C937        C942   1.421       .  A
C937       C1210   1.491       .  S
C938        C939   1.388       .  A
C938        H943   1.085       .  S
C939        C940   1.414       .  A
C939       C1014   1.472       .  S
C940        C941   1.405       .  A
C940        H944   1.084       .  S
C941        C942   1.427       .  A
C941        C950   1.519       .  S
C942        H945   1.082       .  S
C946        C947   1.404       .  A
C946        C951   1.423       .  A
C946       C1206   1.503       .  S
C947        C948   1.391       .  A
C948        C949   1.411       .  A
C949        C950   1.402       .  A
C949        H953   1.084       .  S
C950        C951   1.430       .  A
C951        H954   1.082       .  S
C955        C956   1.404       .  A
C955        C960   1.413       .  A
C955       C1202   1.491       .  S
C956        C957   1.400       .  A
C956        H961   1.084       .  S
C957        C958   1.424       .  A
C958        C959   1.428       .  A
C958        H962   1.080       .  S
C959        C960   1.415       .  A
C959        C968   1.535       .  S
C960        H963   1.080       .  S
C964        C965   1.404       .  A
C964       C2229   1.411       .  A
C964       C1197   1.491       .  S
C965        C966   1.396       .  A
C965        H970   1.080       .  S
C966        C967   1.426       .  A
C966       C1034   1.492       .  S
C967       C2228   1.428       .  A
C967        H971   1.080       .  S
C968       C2227   1.423   1_455  A
C968        C969   1.416       .  A
C969       C2224   1.416   1_455  A
C969        H972   1.080       .  S
C973        C974   1.402       .  A
C973        C978   1.400       .  A
C973       C1193   1.477       .  S
C974        C975   1.401       .  A
C974        H979   1.083       .  S
C975        C976   1.420       .  A
C975       C1013   1.497       .  S
C976        C977   1.421       .  A
C976        H980   1.075       .  S
C977        C978   1.413       .  A
C977       C2244   1.532       .  S
C978        H981   1.075   1_455  S
C982        C983   1.406       .  A
C982        C987   1.401       .  A
C982       C1189   1.478       .  S
C983        C984   1.410       .  A
C983       H2248   1.080       .  S
C984        C985   1.412       .  A
C984       C2237   1.514       .  S
C985        C986   1.409       .  A
C985        H989   1.079       .  S
C986        C987   1.397       .  A
C986       C1027   1.479       .  S
C987        H990   1.082       .  S
H988       C2243   1.077       .  S
Zr991       O992   2.435       .  S
Zr991       O993   2.403       .  S
Zr991       O994   2.505       .  S
Zr991       O997   2.518       .  S
Zr991       O999   2.385       .  S
Zr991      O1000   2.379       .  S
Zr991      O1001   2.420       .  S
Zr991      O1002   2.414       .  S
O992       H1048   0.990       .  S
O992       H1056   0.990       .  S
O993       C1013   1.280       .  A
O994       C1015   1.297       .  A
O995      Zr1005   2.336       .  S
O995       C1014   1.268       .  A
O996      Zr1004   2.401       .  S
O996       C1015   1.274       .  A
O997       C1014   1.302       .  A
O998      Zr1006   2.482       .  S
O998       C1013   1.295       .  A
O999      Zr1004   2.379       .  S
O999      Zr1006   2.359       .  S
O1000     Zr1005   2.389       .  S
O1000     Zr1006   2.350       .  S
O1000      H1035   0.964       .  S
O1001     Zr1004   2.401       .  S
O1001     Zr1021   2.409       .  S
O1001      H1038   0.965       .  S
O1002     Zr1005   2.394       .  S
O1002     Zr1021   2.412       .  S
Zr1003     O1028   2.434       .  S
Zr1003     O1022   2.393       .  S
Zr1003     O1030   2.518       .  S
Zr1003     O1018   2.477       .  S
Zr1003     O1009   2.395       .  S
Zr1003     O1010   2.427       .  S
Zr1003     O1011   2.369       .  S
Zr1003     O1012   2.377       .  S
Zr1004     O1023   2.440       .  S
Zr1004     O1016   2.435       .  S
Zr1004     O1017   2.405       .  S
Zr1004     O1010   2.397       .  S
Zr1004     O1011   2.364       .  S
Zr1005     O1007   2.439       .  S
Zr1005     O1029   2.440       .  S
Zr1005     O1031   2.391       .  S
Zr1005     O1009   2.386       .  S
Zr1005     O1012   2.357       .  S
Zr1006     O1032   2.438       .  S
Zr1006     O1033   2.439       .  S
Zr1006     O1008   2.438       .  S
Zr1006     O1009   2.417       .  S
Zr1006     O1010   2.417       .  S
O1007      H1044   0.990       .  S
O1008      H1039   0.990       .  S
O1008      H1053   0.990       .  S
O1010      H1036   0.966       .  S
O1011     Zr1021   2.345       .  S
O1012     Zr1021   2.366       .  S
O1012      H1037   0.965       .  S
O1016      H1052   0.990       .  S
O1017      C1019   1.281       .  A
O1018      C1019   1.295       .  A
O1020     Zr1021   2.439       .  S
O1020      H1049   0.990       .  S
Zr1021     O1024   2.439       .  S
Zr1021     O1025   2.436       .  S
Zr1021     O1026   2.462       .  S
O1022      C1027   1.280       .  A
O1023      H1055   0.990       .  S
O1024      H1041   0.990       .  S
O1025      H1045   0.990       .  S
O1025      H1054   0.990       .  S
O1026      C1027   1.291       .  A
O1028      H1047   0.990       .  S
O1028      H1051   0.990       .  S
O1029      H1043   0.990       .  S
O1029      H1050   0.990       .  S
O1030      C1034   1.303       .  A
O1031      C1034   1.274       .  A
O1032      H1042   0.990       .  S
O1033      H1046   0.991       .  S
Zr1057     O2318   2.441   1_565  S
Zr1057     O1059   2.465       .  S
Zr1057     O1060   2.406       .  S
Zr1057     O1693   2.397   1_565  S
Zr1057     O1065   2.374       .  S
Zr1057     O1067   2.410       .  S
Zr1057     O1698   2.409   1_565  S
O1058     Zr2317   2.442   1_455  S
O1058      H1114   0.990   1_565  S
O1058      H1122   0.991       .  S
O1059      C1079   1.288       .  A
O1060      C1081   1.280       .  A
O1061     Zr2331   2.450   1_455  S
O1061      C1080   1.285       .  A
O1062     Zr1070   2.455       .  S
O1062      C1081   1.287       .  A
O1063     Zr1687   2.392       .  S
O1063      C1080   1.278   1_655  A
O1064     Zr1072   2.433       .  S
O1064      C1079   1.284       .  A
O1065     Zr1070   2.401       .  S
O1065     Zr1072   2.373       .  S
O1066     Zr1071   2.392       .  S
O1066      H1101   0.966       .  S
O1067     Zr1070   2.400       .  S
O1067     Zr2347   2.413       .  S
O1067      H2364   0.966       .  S
O1068     Zr1687   2.402   1_455  S
O1068     Zr2331   2.387   1_455  S
Zr1069     O1094   2.439       .  S
Zr1069     O1088   2.425       .  S
Zr1069     O1084   2.406       .  S
Zr1069     O1076   2.403   1_554  S
Zr1069     O1077   2.373       .  S
Zr1069     O1708   2.379   1_565  S
Zr1070     O1089   2.438       .  S
Zr1070     O1082   2.434       .  S
Zr1070     O1083   2.461   1_556  S
Zr1070     O1076   2.404       .  S
Zr1070     O1077   2.391   1_556  S
Zr1071     O2333   2.434       .  S
Zr1071     O1095   2.434       .  S
Zr1071     O2321   2.444       .  S
Zr1071     O1097   2.458   1_556  S
Zr1071     O2328   2.399       .  S
Zr1071     O1075   2.399       .  S
Zr1071     O2338   2.378   1_556  S
Zr1072     O1099   2.437       .  S
Zr1072     O1074   2.436       .  S
Zr1072     O1076   2.403       .  S
O1073     Zr2331   2.435   1_455  S
O1073      H1110   0.990       .  S
O1074      H1105   0.990       .  S
O1074      H1119   0.990       .  S
O1076      H1102   0.964   1_556  S
O1077     Zr2347   2.370   1_554  S
O1078     Zr1699   2.374   1_455  S
O1078     Zr2331   2.386   1_454  S
O1078      H1103   0.966       .  S
C1079      C1205   1.490       .  S
C1080      C1194   1.471       .  S
C1081      C1198   1.479       .  S
O1082      H1118   0.990       .  S
O1083      C1085   1.289       .  A
O1084      C1085   1.280       .  A
C1085      C1238   1.477       .  S
O1086     Zr1087   2.438   1_545  S
O1086      H1115   0.990       .  S
Zr1087     O1090   2.437   1_556  S
Zr1087     O1092   2.444   1_556  S
Zr1087     O2327   2.398       .  S
Zr1087     O2337   2.365   1_456  S
O1088      C2353   1.282       .  A
O1089      H1106   0.990       .  S
O1089      H1121   0.989       .  S
O1090      H1107   0.990       .  S
O1091      H1111   0.990       .  S
O1091      H1120   0.990       .  S
O1092      C1093   1.287       .  A
C1093      C1258   1.473       .  S
C1093      O2348   1.280   1_455  A
O1094      H1113   0.990       .  S
O1094      H1117   0.990       .  S
O1095      H1109   0.990       .  S
O1095      H1116   0.990       .  S
O1096      C1100   1.285       .  A
O1097      C1100   1.288       .  A
O1099      H1112   0.990   1_556  S
C1100      C1249   1.487       .  S
H1104      O2327   0.966       .  S
Zr1123     O1124   2.440       .  S
Zr1123     O1125   2.416       .  S
Zr1123     O1126   2.399       .  S
Zr1123     O1129   2.377       .  S
Zr1123     O1131   2.367       .  S
Zr1123     O1132   2.378       .  S
Zr1123     O1133   2.390       .  S
Zr1123     O1134   2.387       .  S
O1124      H1180   0.990       .  S
O1124      H1188   0.990       .  S
O1125      C1145   1.281       .  A
O1126      C1147   1.279       .  A
O1127     Zr1137   2.465   1_655  S
O1127      C1146   1.291   1_655  A
O1128     Zr1136   2.478       .  S
O1128      C1147   1.293       .  A
O1129      C1146   1.277       .  A
O1130     Zr1138   2.459       .  S
O1130      C1145   1.289       .  A
O1131     Zr1136   2.389       .  S
O1131     Zr1138   2.368       .  S
O1132     Zr1137   2.387       .  S
O1132     Zr1138   2.369       .  S
O1132      H1167   0.966       .  S
O1133     Zr1136   2.400       .  S
O1133     Zr1153   2.398       .  S
O1133      H1170   0.966       .  S
O1134     Zr1137   2.398       .  S
O1134     Zr1153   2.383       .  S
Zr1135     O1160   2.443       .  S
Zr1135     O1154   2.453       .  S
Zr1135     O1162   2.415       .  S
Zr1135     O1150   2.387       .  S
Zr1135     O1141   2.407       .  S
Zr1135     O1142   2.412       .  S
Zr1135     O1143   2.374       .  S
Zr1135     O1144   2.377       .  S
Zr1136     O1155   2.435       .  S
Zr1136     O1148   2.435       .  S
Zr1136     O1149   2.465       .  S
Zr1136     O1142   2.403       .  S
Zr1136     O1143   2.392       .  S
Zr1137     O1139   2.435   1_455  S
Zr1137     O2421   2.436   1_455  S
Zr1137     O1163   2.457   1_455  S
Zr1137     O1141   2.400       .  S
Zr1137     O1144   2.400       .  S
Zr1138     O1164   2.436   1_455  S
Zr1138     O1165   2.435       .  S
Zr1138     O1140   2.436       .  S
Zr1138     O1141   2.411       .  S
Zr1138     O1142   2.410       .  S
O1139      H2436   0.990       .  S
O1140      H1171   0.990       .  S
O1140      H1185   0.990       .  S
O1142      H1168   0.966       .  S
O1143     Zr1153   2.369       .  S
O1144     Zr1153   2.377       .  S
O1144      H1169   0.966       .  S
C1145      C1201   1.481       .  S
C1146      C1190   1.478   1_455  S
C1147      C1209   1.480       .  S
O1148      H1184   0.990       .  S
O1149      C1151   1.288       .  A
O1150      C1151   1.277       .  A
C1151      C1221   1.481       .  S
O1152     Zr1153   2.437       .  S
O1152      H1181   0.990       .  S
Zr1153     O1156   2.435       .  S
Zr1153     O1157   2.437       .  S
Zr1153     O1158   2.414       .  S
O1154      C1159   1.286       .  A
O1155      H1172   0.990       .  S
O1155      H1187   0.990       .  S
O1156      H1173   0.990       .  S
O1157      H1177   0.990       .  S
O1157      H1186   0.990       .  S
O1158      C1159   1.280       .  A
C1159      C1218   1.476       .  S
O1160      H1179   0.991       .  S
O1160      H1183   0.990       .  S
O1161     Zr2397   2.440       .  S
O1161      H1175   0.989       .  S
O1161      H2442   0.990       .  S
O1162      C1166   1.281   1_455  A
O1163      C1166   1.286       .  A
O1164      H1174   0.990       .  S
O1165      H1178   0.990       .  S
C1166      C2473   1.480       .  S
H1176      O2399   0.990       .  S
H1182      O2421   0.990       .  S
C1189      C2450   1.350       .  D
C1189      H2451   1.087       .  S
C1190      C2449   1.355   1_655  D
C1190      H2452   1.084       .  S
H1191      C2449   1.087       .  S
H1192      C2450   1.085       .  S
C1193      C1194   1.343       .  D
C1193      H1195   1.089   1_455  S
C1194      H1196   1.086       .  S
C1197      C1198   1.353       .  D
C1197      H1199   1.088       .  S
C1198      H1200   1.083       .  S
C1201      C1202   1.346       .  D
C1201      H1203   1.087       .  S
C1202      H1204   1.087       .  S
C1205      C1206   1.356       .  D
C1205      H1207   1.087       .  S
C1206      H1208   1.086       .  S
C1209      C1210   1.343       .  D
C1209      H1211   1.086       .  S
C1210      H1212   1.090       .  S
C1213      C2426   1.479       .  S
C1213      C1214   1.344       .  D
C1213      H2475   1.086       .  S
C1214      H1216   1.089       .  S
H1215      C2473   1.086       .  S
C1217      C1218   1.349       .  D
C1217      H1219   1.086       .  S
C1218      H1220   1.088       .  S
C1221      C1222   1.351       .  D
C1221      H1223   1.086       .  S
C1222      H1224   1.087       .  S
C1225      C1226   1.346       .  D
C1225      H1227   1.086       .  S
C1226      H1228   1.088       .  S
C1229      C1230   1.351       .  D
C1229      H1231   1.087       .  S
C1230      H1232   1.086       .  S
C1233      C1234   1.350       .  D
C1234      H1236   1.085       .  S
C1237      C1238   1.348       .  D
C1237      H1239   1.088       .  S
C1238      H1240   1.086       .  S
C1241      C1242   1.355       .  D
C1241      H1243   1.087       .  S
C1242      H1244   1.085       .  S
C1245      C1246   1.349       .  D
C1245      H1247   1.087       .  S
C1246      H1248   1.085       .  S
C1249      C1250   1.349       .  D
C1249      H1251   1.084       .  S
C1250      H1252   1.088       .  S
C1253      C1254   1.343       .  D
C1253      H1255   1.088       .  S
C1254      H1256   1.086       .  S
C1257      C1258   1.338   1_545  D
C1257      H1259   1.086       .  S
C1261      C1262   1.403       .  A
C1261      C1896   1.407       .  A
C1261      C1887   1.465       .  S
C1262      C1263   1.391       .  A
C1262      H1267   1.084       .  S
C1263      C1264   1.414       .  A
C1263      C1358   1.480       .  S
C1264      C1895   1.410       .  A
C1264      H1268   1.082       .  S
C1265      C1894   1.406   1_545  A
C1265      C1266   1.422       .  A
C1265      C1272   1.518       .  S
C1266      C1891   1.422       .  A
C1266      H1269   1.082       .  S
C1270      C1271   1.416       .  A
C1270      C1275   1.409       .  A
C1270      C1883   1.482       .  S
C1271      C1272   1.411       .  A
C1271      H1276   1.084       .  S
C1272      C1273   1.404       .  A
C1273      C1274   1.422       .  A
C1273      H1277   1.083       .  S
C1274      C1275   1.410       .  A
C1274      C1339   1.491       .  S
C1275      H1278   1.084       .  S
C1279      C1280   1.410       .  A
C1279      C1284   1.409       .  A
C1279      C1880   1.494       .  S
C1280      C1281   1.403       .  A
C1281      C1282   1.420       .  A
C1282      C1283   1.420       .  A
C1282      H1286   1.083       .  S
C1283      C1284   1.407       .  A
C1283      C1292   1.517       .  S
C1284      H1287   1.083       .  S
C1288      C1919   1.411   1_545  A
C1288      C1293   1.408       .  A
C1288      C1875   1.494       .  S
C1289      C1918   1.409       .  A
C1289      C1290   1.400       .  A
C1289      H1294   1.083       .  S
C1290      C1291   1.417       .  A
C1290      C1338   1.490       .  S
C1291      C1922   1.426       .  A
C1291      H1295   1.081       .  S
C1292      C1921   1.424   1_545  A
C1292      C1293   1.408       .  A
C1293      H1296   1.083       .  S
C1297      C1298   1.400       .  A
C1297      C1302   1.401       .  A
C1297      C1871   1.470       .  S
C1298      C1299   1.403       .  A
C1298      H1303   1.081       .  S
C1299      C1300   1.411       .  A
C1299      C1308   1.506       .  S
C1301      C1351   1.485       .  S
C1306      C1307   1.397       .  A
C1306      C1311   1.404       .  A
C1306      C1867   1.470       .  S
C1307      C1308   1.406       .  A
C1307      H1312   1.080       .  S
C1308      C1309   1.414       .  A
C1309      C1310   1.412       .  A
C1309      H1313   1.080       .  S
C1310      C1311   1.400       .  A
C1310      C1337   1.490       .  S
C1311      H1314   1.083       .  S
Zr1315     O1316   2.436       .  S
Zr1315     O1317   2.404       .  S
Zr1315     O1318   2.501       .  S
Zr1315     O1321   2.506       .  S
Zr1315     O1323   2.385       .  S
Zr1315     O1324   2.392       .  S
Zr1315     O1325   2.429       .  S
Zr1315     O1326   2.407       .  S
O1316      H1372   0.990       .  S
O1316      H1380   0.991       .  S
O1317      C1337   1.281       .  A
O1318      C1339   1.290       .  A
O1319     Zr1329   2.401       .  S
O1319      C1338   1.277       .  A
O1320     Zr1328   2.396       .  S
O1320      C1339   1.269       .  A
O1321      C1338   1.299       .  A
O1322     Zr1330   2.467       .  S
O1322      C1337   1.293       .  A
O1323     Zr1328   2.376       .  S
O1323     Zr1330   2.344       .  S
O1324     Zr1329   2.368       .  S
O1324     Zr1330   2.373       .  S
O1324      H1359   0.966       .  S
O1325     Zr1328   2.406       .  S
O1325     Zr1345   2.399       .  S
O1325      H1362   0.966       .  S
O1326     Zr1329   2.400       .  S
O1326     Zr1345   2.417       .  S
Zr1327     O1352   2.436       .  S
Zr1327     O1346   2.383       .  S
Zr1327     O1354   2.498       .  S
Zr1327     O1342   2.504       .  S
Zr1327     O1333   2.420       .  S
Zr1327     O1334   2.409       .  S
Zr1327     O1335   2.374       .  S
Zr1327     O1336   2.387       .  S
Zr1328     O1347   2.436       .  S
Zr1328     O1340   2.434       .  S
Zr1328     O1341   2.409       .  S
Zr1328     O1334   2.395       .  S
Zr1328     O1335   2.371       .  S
Zr1329     O1331   2.435       .  S
Zr1329     O1353   2.436       .  S
Zr1329     O1355   2.384       .  S
Zr1329     O1333   2.392       .  S
Zr1329     O1336   2.390       .  S
Zr1330     O1356   2.437       .  S
Zr1330     O1357   2.437       .  S
Zr1330     O1332   2.439       .  S
Zr1330     O1333   2.416       .  S
Zr1330     O1334   2.419       .  S
O1331      H1368   0.990       .  S
O1332      H1363   0.990       .  S
O1332      H1377   0.990       .  S
O1334      H1360   0.966       .  S
O1335     Zr1345   2.357       .  S
O1336     Zr1345   2.347       .  S
O1336      H1361   0.963       .  S
O1340      H1376   0.990       .  S
O1341      C1343   1.280       .  A
O1342      C1343   1.300       .  A
O1344     Zr1345   2.434       .  S
O1344      H1373   0.990       .  S
Zr1345     O1348   2.435       .  S
Zr1345     O1349   2.439       .  S
Zr1345     O1350   2.476       .  S
O1346      C1351   1.277       .  A
O1347      H1364   0.990       .  S
O1347      H1379   0.990       .  S
O1348      H1365   0.990       .  S
O1349      H1369   0.990       .  S
O1349      H1378   0.990       .  S
O1350      C1351   1.294       .  A
O1352      H1371   0.990       .  S
O1352      H1375   0.990       .  S
O1353      H1367   0.990       .  S
O1353      H1374   0.990       .  S
O1354      C1358   1.298       .  A
O1355      C1358   1.276       .  A
O1356      H1366   0.990       .  S
O1357      H1370   0.990       .  S
Zr1381     O1382   2.445       .  S
Zr1381     O1383   2.449       .  S
Zr1381     O1384   2.416       .  S
Zr1381     O1387   2.401       .  S
Zr1381     O1389   2.379       .  S
Zr1381     O1390   2.379       .  S
Zr1381     O1391   2.414       .  S
Zr1381     O1392   2.404       .  S
O1382      H1438   0.990       .  S
O1382      H1446   0.990       .  S
O1383      C1403   1.284       .  A
O1384      C1405   1.280       .  A
O1385     Zr1395   2.442       .  S
O1385      C1404   1.281       .  A
O1386     Zr1394   2.482       .  S
O1386      C1405   1.292       .  A
O1387      C1404   1.275       .  A
O1388     Zr1396   2.436       .  S
O1388      C1403   1.283       .  A
O1389     Zr1394   2.402       .  S
O1389     Zr1396   2.387       .  S
O1390     Zr1395   2.396       .  S
O1390     Zr1396   2.369       .  S
O1390      H1425   0.966       .  S
O1391     Zr1394   2.392       .  S
O1391     Zr1411   2.401       .  S
O1391      H1428   0.965       .  S
O1392     Zr1395   2.379       .  S
O1392     Zr1411   2.389       .  S
Zr1393     O1418   2.442       .  S
Zr1393     O1412   2.451       .  S
Zr1393     O1420   2.478       .  S
Zr1393     O1408   2.408       .  S
Zr1393     O1399   2.398       .  S
Zr1393     O1400   2.425       .  S
Zr1393     O1401   2.390       .  S
Zr1393     O1402   2.383       .  S
Zr1394     O1413   2.440       .  S
Zr1394     O1406   2.435       .  S
Zr1394     O1407   2.439       .  S
Zr1394     O1400   2.423       .  S
Zr1394     O1401   2.407       .  S
Zr1395     O1397   2.435   1_545  S
Zr1395     O1419   2.438       .  S
Zr1395     O1421   2.424       .  S
Zr1395     O1399   2.394       .  S
Zr1395     O1402   2.393       .  S
Zr1396     O1422   2.435       .  S
Zr1396     O1423   2.435       .  S
Zr1396     O1398   2.438       .  S
Zr1396     O1399   2.396       .  S
Zr1396     O1400   2.397       .  S
O1397      H1434   0.990       .  S
O1398      H1429   0.990       .  S
O1398      H1443   0.990       .  S
O1400      H1426   0.966       .  S
O1401     Zr1411   2.371       .  S
O1402     Zr1411   2.387       .  S
O1402      H1427   0.966       .  S
C1403      C1859   1.482       .  S
C1404      C1864   1.470       .  S
C1405      C1855   1.496       .  S
O1406      H1442   0.990       .  S
O1407      C1409   1.284       .  A
O1408      C1409   1.281       .  A
C1409      C1872   1.476       .  S
O1410     Zr1411   2.436       .  S
O1410      H1439   0.990       .  S
Zr1411     O1414   2.436       .  S
Zr1411     O1415   2.439   1_545  S
Zr1411     O1416   2.421       .  S
O1412      C1417   1.287       .  A
O1413      H1430   0.990       .  S
O1413      H1445   0.990       .  S
O1414      H1431   0.990       .  S
O1415      H2065   0.991       .  S
O1415      H1444   0.990       .  S
O1416      C1417   1.280       .  A
C1417      C1876   1.481       .  S
O1418      H1437   0.990       .  S
O1418      H1441   0.990       .  S
O1419      H1433   0.990       .  S
O1419      H1440   0.990       .  S
O1420      C1424   1.288       .  A
O1421      C1424   1.284       .  A
O1422      H1432   0.990       .  S
O1423      H1436   0.990       .  S
C1424      C1884   1.489       .  S
H1435      O2045   0.990       .  S
C1447      C1448   1.406       .  A
C1447      C1452   1.404       .  A
C1447      C1852   1.475       .  S
C1448      C1449   1.408       .  A
C1448      H1453   1.077       .  S
C1449      C1450   1.436       .  A
C1449      C1458   1.550       .  S
C1450      C1451   1.435       .  A
C1450      H2084   1.077       .  S
C1451      C1452   1.399       .  A
C1451      C1525   1.509       .  S
C1452      H1455   1.083       .  S
H1454      C2080   1.078       .  S
C1456      C1457   1.410       .  A
C1456      C1461   1.402       .  A
C1456      C2493   1.479       .  S
C1457      C1458   1.413       .  A
C1457      H1462   1.077       .  S
C1458      C1459   1.438       .  A
C1459      C1460   1.430       .  A
C1459      H1463   1.076       .  S
C1460      C1461   1.389       .  A
C1460      C1544   1.503       .  S
C1461      H1464   1.082       .  S
C1465      C1466   1.399       .  A
C1465      C1470   1.412       .  A
C1465      C1847   1.483       .  S
C1466      C1467   1.387       .  A
C1466      H1471   1.085       .  S
C1467      C1468   1.404       .  A
C1467      C1537   1.469       .  S
C1468      C1469   1.403       .  A
C1468      H1472   1.080       .  S
C1469      C1470   1.426       .  A
C1469      C1476   1.512       .  S
C1470      H1473   1.081       .  S
C1474      C1475   1.412       .  A
C1474      C1479   1.398       .  A
C1474      C1860   1.492       .  S
C1475      C1476   1.427       .  A
C1475      H1480   1.081       .  S
C1476      C1477   1.402       .  A
C1477      C1478   1.404       .  A
C1477      H1481   1.081       .  S
C1478      C1479   1.395       .  A
C1478      C1523   1.468       .  S
C1479      H1482   1.084       .  S
C1483      C1484   1.407       .  A
C1483      C1488   1.408       .  A
C1483      C1844   1.487       .  S
C1484      C1485   1.413       .  A
C1484      H1489   1.079       .  S
C1485      C1486   1.422       .  A
C1486      C1487   1.422       .  A
C1486      H1490   1.081       .  S
C1487      C1488   1.405       .  A
C1487      C1524   1.487       .  S
C1488      H1491   1.084       .  S
C1492      C1493   1.412       .  A
C1492      C1497   1.411       .  A
C1492      C1856   1.487       .  S
C1493      H1498   1.084       .  S
C1494      C1495   1.421       .  A
C1495      C1496   1.418       .  A
C1495      H1499   1.079       .  S
C1497      H1500   1.081       .  S
Zr1501     O1502   2.434       .  S
Zr1501     O1503   2.387       .  S
Zr1501     O1504   2.539       .  S
Zr1501     O1507   2.531       .  S
Zr1501     O1509   2.377       .  S
Zr1501     O1510   2.388       .  S
Zr1501     O1511   2.414       .  S
Zr1501     O1512   2.419       .  S
O1502      H1558   0.990       .  S
O1502      H1566   0.990       .  S
O1503      C1523   1.278       .  A
O1504      C1525   1.307       .  A
O1505     Zr1515   2.374   1_655  S
O1505      C1524   1.273       .  A
O1506     Zr2144   2.383       .  S
O1506      C1525   1.273       .  A
O1507      C1524   1.304       .  A
O1508     Zr1516   2.438       .  S
O1508      C1523   1.287       .  A
O1509     Zr2144   2.361       .  S
O1509     Zr1516   2.366       .  S
O1510     Zr1515   2.381   1_655  S
O1510     Zr1516   2.362       .  S
O1510      H1545   0.964       .  S
O1511     Zr2144   2.388       .  S
O1511     Zr2161   2.417       .  S
O1511      H1548   0.966       .  S
O1512     Zr1515   2.386   1_655  S
O1512     Zr2161   2.415       .  S
Zr1513     O1538   2.435       .  S
Zr1513     O1532   2.363       .  S
Zr1513     O1540   2.528       .  S
Zr1513     O1528   2.526       .  S
Zr1513     O2152   2.388       .  S
Zr1514     O1533   2.439       .  S
Zr1514     O1526   2.439       .  S
Zr1514     O2136   2.393   1_545  S
Zr1514     O1527   2.395       .  S
Zr1514     O2139   2.370   1_545  S
Zr1514     O2141   2.404   1_545  S
Zr1514     O1520   2.401       .  S
Zr1514     O1521   2.374       .  S
Zr1515     O1539   2.438       .  S
Zr1515     O1519   2.395       .  S
Zr1516     O1542   2.441       .  S
Zr1516     O1543   2.438       .  S
Zr1516     O1518   2.437       .  S
Zr1516     O1519   2.402   1_655  S
Zr1516     O2150   2.395       .  S
O1517      H1554   0.990       .  S
O1518      H1549   0.990       .  S
O1518      H1563   0.990       .  S
O1520     Zr2146   2.401   1_545  S
O1520      H1546   0.965       .  S
O1521     Zr1531   2.343       .  S
O1522     Zr2143   2.388       .  S
O1522      H2177   0.965       .  S
O1526      H2192   0.989       .  S
O1527      C1529   1.271       .  A
O1530     Zr2161   2.436       .  S
O1530      H2189   0.990       .  S
Zr1531     O2160   2.436       .  S
Zr1531     O1534   2.438       .  S
Zr1531     O2141   2.417   1_545  S
Zr1531     O2142   2.405   1_545  S
O1532      C1537   1.274       .  A
O1533      H1550   0.990       .  S
O1533      H1565   0.990       .  S
O1535      H2185   0.990       .  S
O1535      H1564   0.990       .  S
O1536      C1537   1.292       .  A
O1538      H1557   0.990       .  S
O1538      H1561   0.990       .  S
O1539      H1560   0.990       .  S
O1540      C2174   1.306       .  A
O1541      C1544   1.274       .  A
O1542      H1552   0.990       .  S
O1543      H1556   0.990       .  S
C1544      O2170   1.308       .  A
H1547      O2152   0.965       .  S
H1555      O2165   0.990       .  S
H1559      O2160   0.990   1_565  S
H1562      O2156   0.991       .  S
C1567      C1568   1.402       .  A
C1567      C1572   1.397       .  A
C1567      C1840   1.467       .  S
C1568      C1569   1.396       .  A
C1568      H1573   1.084       .  S
C1569      C1570   1.420       .  A
C1569      C1644   1.481       .  S
C1570      C1571   1.419       .  A
C1570      H1574   1.080       .  S
C1571      C1572   1.411       .  A
C1571      C1580   1.517       .  S
C1572      H1575   1.081       .  S
C1576      C1577   1.407       .  A
C1576      C1581   1.414       .  A
C1576      C1836   1.486       .  S
C1577      C1578   1.392       .  A
C1577      H2212   1.084       .  S
C1578      C1579   1.410       .  A
C1578      C2279   1.485       .  S
C1579      C1580   1.415       .  A
C1579      H1583   1.081       .  S
C1580      C1581   1.416       .  A
C1581      H1584   1.081       .  S
H1582      C2207   1.084   1_545  S
C1585      C1586   1.403       .  A
C1585      C1590   1.411       .  A
C1585      C1832   1.484       .  S
C1586      C1587   1.399       .  A
C1586      H1591   1.084       .  S
C1587      C1588   1.419       .  A
C1587      C2275   1.495       .  S
C1588      C1589   1.424       .  A
C1588      H1592   1.080       .  S
C1589      C1590   1.410       .  A
C1589      C1598   1.524       .  S
C1590      H1593   1.081       .  S
C1594      C1595   1.403       .  A
C1594      C1827   1.490       .  S
C1595      C1596   1.393       .  A
C1595      H1600   1.080       .  S
C1596      C1597   1.418       .  A
C1596      C1664   1.483       .  S
C1597      H1601   1.081       .  S
C1598      C1599   1.409       .  A
C1599      H1602   1.080       .  S
C1603      C1604   1.404       .  A
C1603      C1608   1.401       .  A
C1603      C1823   1.482       .  S
C1604      C1605   1.405       .  A
C1604      H1609   1.083       .  S
C1605      C1606   1.419       .  A
C1605      C1643   1.496       .  S
C1606      C1607   1.418       .  A
C1606      H1610   1.077       .  S
C1607      C1608   1.413       .  A
C1608      H1611   1.077       .  S
C1612      C1613   1.410   1_655  A
C1612      C1617   1.404       .  A
C1612      C1819   1.486   1_655  S
C1613      C1614   1.412       .  A
C1614      C1615   1.410   1_455  A
C1615      C1616   1.409       .  A
C1615      H1619   1.078       .  S
C1616      C1617   1.398       .  A
C1616      C1657   1.484       .  S
C1617      H1620   1.080       .  S
Zr1621     O1622   2.435       .  S
Zr1621     O1623   2.400       .  S
Zr1621     O1624   2.507       .  S
Zr1621     O1627   2.494       .  S
Zr1621     O1629   2.376       .  S
Zr1621     O1630   2.400       .  S
Zr1621     O1631   2.413       .  S
Zr1621     O1632   2.415       .  S
O1622      H1678   0.990       .  S
O1622      H1686   0.990       .  S
O1623      C1643   1.280       .  A
O1624      C1645   1.301       .  A
O1625     Zr1635   2.386       .  S
O1625      C1644   1.269       .  A
O1626     Zr1634   2.399       .  S
O1626      C1645   1.278       .  A
O1627      C1644   1.293       .  A
O1628     Zr1636   2.479       .  S
O1628      C1643   1.294       .  A
O1629     Zr1634   2.372       .  S
O1629     Zr1636   2.357       .  S
O1630     Zr1635   2.385       .  S
O1630     Zr1636   2.364       .  S
O1630      H1665   0.966       .  S
O1631     Zr1634   2.404       .  S
O1631     Zr1651   2.414       .  S
O1631      H1668   0.966       .  S
O1632     Zr1635   2.402       .  S
O1632     Zr1651   2.401       .  S
Zr1633     O1658   2.435       .  S
Zr1633     O1652   2.390       .  S
Zr1633     O1660   2.495       .  S
Zr1633     O1648   2.491       .  S
Zr1633     O1639   2.411       .  S
Zr1633     O1640   2.422       .  S
Zr1633     O1641   2.373       .  S
Zr1633     O1642   2.382       .  S
Zr1634     O1653   2.438   1_545  S
Zr1634     O1646   2.438       .  S
Zr1634     O1647   2.407       .  S
Zr1634     O1640   2.392       .  S
Zr1634     O1641   2.372       .  S
Zr1635     O1637   2.438       .  S
Zr1635     O1659   2.437       .  S
Zr1635     O1661   2.399       .  S
Zr1635     O1639   2.386       .  S
Zr1635     O1642   2.383       .  S
Zr1636     O1662   2.438       .  S
Zr1636     O1663   2.434       .  S
Zr1636     O1638   2.437       .  S
Zr1636     O1639   2.421       .  S
Zr1636     O1640   2.420       .  S
O1637      H1674   0.991       .  S
O1638      H1669   0.990       .  S
O1638      H1683   0.990       .  S
O1640      H1666   0.966       .  S
O1641     Zr1651   2.354       .  S
O1642     Zr1651   2.359       .  S
O1642      H1667   0.965       .  S
C1645      C2217   1.491   1_545  S
O1646      H1682   0.990   1_545  S
O1647      C1649   1.280       .  A
O1648      C1649   1.296       .  A
C1649      C2208   1.490   1_545  S
O1650     Zr1651   2.434       .  S
O1650      H1679   0.990       .  S
Zr1651     O1654   2.436       .  S
Zr1651     O1655   2.439       .  S
Zr1651     O1656   2.460       .  S
O1652      C1657   1.278       .  A
O1653      H2300   0.990       .  S
O1653      H1685   0.990       .  S
O1654      H1671   0.990       .  S
O1655      H1675   0.990       .  S
O1655      H1684   0.990       .  S
O1656      C1657   1.290       .  A
O1658      H1677   0.990       .  S
O1658      H1681   0.990       .  S
O1659      H1673   0.990       .  S
O1659      H1680   0.989       .  S
O1660      C1664   1.298       .  A
O1661      C1664   1.276       .  A
O1662      H1672   0.990       .  S
O1663      H1676   0.990       .  S
H1670      O2283   0.990       .  S
Zr1687     O1689   2.432       .  S
Zr1687     O1690   2.411       .  S
Zr1687     O1695   2.374       .  S
Zr1687     O2326   2.384       .  S
Zr1687     O1697   2.398       .  S
O1688      H1744   0.990       .  S
O1688      H1752   0.990       .  S
O1689      C1709   1.283       .  A
O1690      C1711   1.281       .  A
O1691      C1710   1.288       .  A
O1692     Zr1700   2.450       .  S
O1692      C1711   1.287       .  A
O1693      C1710   1.279       .  A
O1694     Zr1702   2.436       .  S
O1694      C1709   1.283       .  A
O1695     Zr1700   2.390       .  S
O1695     Zr1702   2.380       .  S
O1696     Zr2317   2.372       .  S
O1696     Zr1701   2.402   1_565  S
O1696     Zr2332   2.374       .  S
O1696      H1731   0.966   1_565  S
O1697     Zr1700   2.393       .  S
O1698     Zr2347   2.403   1_545  S
Zr1699     O1724   2.441       .  S
Zr1699     O1718   2.440   1_655  S
Zr1699     O2356   2.410       .  S
Zr1699     O1714   2.407       .  S
Zr1699     O2335   2.396   1_554  S
Zr1699     O1706   2.406   1_554  S
Zr1699     O1707   2.381       .  S
Zr1700     O1719   2.437       .  S
Zr1700     O1712   2.436       .  S
Zr1700     O1713   2.430   1_556  S
Zr1700     O1706   2.406       .  S
Zr1700     O1707   2.403   1_556  S
Zr1701     O1725   2.435       .  S
Zr1701     O1727   2.460   1_556  S
Zr1701     O1705   2.403   1_545  S
Zr1702     O2358   2.437       .  S
Zr1702     O1729   2.436       .  S
Zr1702     O1704   2.437       .  S
Zr1702     O2326   2.370       .  S
Zr1702     O2335   2.399       .  S
Zr1702     O1706   2.401       .  S
O1703      H1740   0.990   1_556  S
O1704      H1735   0.990       .  S
O1704      H1749   0.990       .  S
O1705     Zr2329   2.390   1_556  S
O1705     Zr2332   2.404       .  S
O1706      H1732   0.966   1_556  S
O1708     Zr2347   2.372   1_544  S
O1708      H1733   0.966       .  S
C1709      C1835   1.477       .  S
C1710      C1824   1.473       .  S
C1711      C1828   1.474       .  S
O1712      H1748   0.990       .  S
O1713      C1715   1.281       .  A
O1714      C1715   1.281       .  A
C1715      C1868   1.461       .  S
O1716     Zr1717   2.436       .  S
O1716      H1745   0.990       .  S
Zr1717     O1720   2.437       .  S
Zr1717     O2351   2.438   1_556  S
Zr1717     O1722   2.440   1_556  S
Zr1717     O2328   2.396       .  S
Zr1717     O2338   2.366   1_556  S
O1719      H1736   0.990       .  S
O1719      H1751   0.990       .  S
O1720      H1737   0.990   1_556  S
O1721     Zr2347   2.437   1_545  S
O1721      H1741   0.990   1_556  S
O1721      H1750   0.990       .  S
O1722      C1723   1.287       .  A
C1723      C1888   1.467       .  S
O1724      H1743   0.990       .  S
O1724      H1747   0.991       .  S
O1725      H1739   0.990       .  S
O1725      H1746   0.990       .  S
O1726     Zr2329   2.414   1_545  S
O1726      C1730   1.284       .  A
O1727      C1730   1.289       .  A
O1728     Zr2332   2.438       .  S
O1728      H2368   0.990       .  S
O1729      H1742   0.990   1_556  S
C1730      C1879   1.483       .  S
H1738      O2358   0.990       .  S
Zr1753     O1754   2.443       .  S
Zr1753     O1755   2.417       .  S
Zr1753     O1756   2.387       .  S
Zr1753     O1759   2.382       .  S
Zr1753     O1761   2.375       .  S
Zr1753     O1762   2.375       .  S
Zr1753     O1763   2.395       .  S
Zr1753     O1764   2.390       .  S
O1754      H1810   0.991       .  S
O1754      H1818   0.990       .  S
O1755      C1775   1.280       .  A
O1756      C1777   1.277       .  A
O1757     Zr1767   2.463       .  S
O1757      C1776   1.289       .  A
O1758     Zr1766   2.456       .  S
O1758      C1777   1.285       .  A
O1759      C1776   1.277       .  A
O1760     Zr1768   2.446       .  S
O1760      C1775   1.285       .  A
O1761     Zr1766   2.399       .  S
O1761     Zr1768   2.376       .  S
O1762     Zr1767   2.393       .  S
O1762     Zr1768   2.375       .  S
O1762      H1797   0.966       .  S
O1763     Zr1766   2.402       .  S
O1763     Zr1783   2.386       .  S
O1763      H1800   0.966       .  S
O1764     Zr1767   2.394       .  S
O1764     Zr1783   2.388       .  S
Zr1765     O1790   2.439       .  S
Zr1765     O1784   2.440       .  S
Zr1765     O1792   2.414       .  S
Zr1765     O1780   2.386       .  S
Zr1765     O1771   2.395       .  S
Zr1765     O1772   2.407       .  S
Zr1765     O1773   2.367       .  S
Zr1765     O1774   2.380       .  S
Zr1766     O1785   2.439       .  S
Zr1766     O1778   2.435       .  S
Zr1766     O1779   2.461       .  S
Zr1766     O1772   2.404       .  S
Zr1766     O1773   2.376       .  S
Zr1767     O1769   2.434       .  S
Zr1767     O1793   2.460       .  S
Zr1767     O1771   2.397       .  S
Zr1767     O1774   2.397       .  S
Zr1768     O1794   2.438       .  S
Zr1768     O1795   2.436       .  S
Zr1768     O1770   2.437       .  S
Zr1768     O1771   2.403       .  S
Zr1768     O1772   2.415       .  S
O1770      H1801   0.990       .  S
O1770      H1815   0.990       .  S
O1772      H1798   0.966       .  S
O1773     Zr1783   2.359       .  S
O1774     Zr1783   2.383       .  S
O1774      H1799   0.966       .  S
C1775      C1831   1.477       .  S
C1776      C1820   1.478       .  S
C1777      C1839   1.470       .  S
O1778      H1814   0.990       .  S
O1779      C1781   1.288       .  A
O1780      C1781   1.278       .  A
C1781      C1851   1.482       .  S
O1782     Zr1783   2.437       .  S
O1782      H1811   0.990       .  S
Zr1783     O1786   2.436       .  S
Zr1783     O1787   2.437       .  S
Zr1783     O1788   2.415       .  S
O1784      C1789   1.285       .  A
O1785      H1802   0.990       .  S
O1785      H1817   0.990       .  S
O1786      H1803   0.990       .  S
O1787      H1807   0.990       .  S
O1787      H1816   0.990       .  S
O1788      C1789   1.281       .  A
C1789      C1848   1.471       .  S
O1790      H1809   0.990       .  S
O1790      H1813   0.990       .  S
O1791      H1805   0.990       .  S
O1792      C1796   1.283       .  A
O1793      C1796   1.288       .  A
O1794      H1804   0.990       .  S
O1795      H1808   0.990       .  S
C1823      C1824   1.344       .  D
C1823      H1825   1.089       .  S
C1824      H1826   1.086       .  S
C1827      C1828   1.353       .  D
C1827      H1829   1.088   1_655  S
C1828      H1830   1.082       .  S
C1831      C1832   1.345       .  D
C1831      H1833   1.087       .  S
C1832      H1834   1.087       .  S
C1835      C1836   1.348       .  D
C1835      H1837   1.088       .  S
C1836      H1838   1.086       .  S
C1839      C1840   1.343       .  D
C1839      H1841   1.086       .  S
C1840      H1842   1.088       .  S
C1843      C1844   1.348       .  D
C1844      H1846   1.088   1_655  S
C1847      C1848   1.346       .  D
C1847      H1849   1.086       .  S
C1848      H1850   1.089       .  S
C1851      C1852   1.350       .  D
C1851      H1853   1.086       .  S
C1852      H1854   1.087       .  S
C1855      C1856   1.355       .  D
C1855      H1857   1.086       .  S
C1856      H1858   1.086       .  S
C1859      C1860   1.351       .  D
C1859      H1861   1.087       .  S
C1860      H1862   1.086       .  S
C1863      C2086   1.477       .  S
C1863      C1864   1.348       .  D
C1863      H2495   1.086       .  S
C1864      H1866   1.085       .  S
H1865      C2493   1.086       .  S
C1867      C1868   1.339       .  D
C1867      H1869   1.089       .  S
C1868      H1870   1.086       .  S
C1871      C1872   1.346       .  D
C1871      H1873   1.087       .  S
C1872      H1874   1.086       .  S
C1875      C1876   1.347       .  D
C1875      H1877   1.087       .  S
C1876      H1878   1.086       .  S
C1879      C1880   1.350       .  D
C1879      H1881   1.083       .  S
C1880      H1882   1.088       .  S
C1883      C1884   1.351       .  D
C1883      H1885   1.089       .  S
C1884      H1886   1.089       .  S
C1887      C1888   1.336       .  D
C1887      H1889   1.086       .  S
C1888      H2520   1.088       .  S
H1890      C2518   1.087       .  S
C1891      C1892   1.408   1_545  A
C1891      C2517   1.498       .  S
C1892      C1893   1.392       .  A
C1892      H1897   1.084       .  S
C1893      C1894   1.414       .  A
C1893      C1988   1.479       .  S
C1894      H1898   1.084       .  S
C1895      C1896   1.409       .  A
C1895      C1902   1.508       .  S
C1896      H1899   1.082       .  S
C1900      C1901   1.402       .  A
C1900      C1905   1.406       .  A
C1900      C2513   1.473       .  S
C1901      C1902   1.407       .  A
C1901      H1906   1.083       .  S
C1902      C1903   1.411       .  A
C1903      C1904   1.421       .  A
C1903      H1907   1.082       .  S
C1904      C1905   1.399       .  A
C1904      C1969   1.488       .  S
C1905      H1908   1.084       .  S
C1909      C1910   1.407       .  A
C1909      C1914   1.408       .  A
C1909      C2510   1.490       .  S
C1910      C1911   1.399       .  A
C1911      C1912   1.422       .  A
C1912      C1913   1.423       .  A
C1912      H1916   1.082       .  S
C1913      C1914   1.409       .  A
C1913      C1922   1.525       .  S
C1914      H1917   1.081       .  S
C1918      C1923   1.410       .  A
C1918      C2505   1.490       .  S
C1919      C1920   1.404       .  A
C1919      H1924   1.083       .  S
C1920      C1921   1.419       .  A
C1920      C1968   1.489       .  S
C1921      H1925   1.082       .  S
C1922      C1923   1.410       .  A
C1923      H1926   1.082       .  S
C1927      C1928   1.409       .  A
C1927      C1932   1.401       .  A
C1927      C2501   1.487       .  S
C1928      C1929   1.411       .  A
C1928      H1933   1.082       .  S
C1929      C1930   1.413       .  A
C1929      C1938   1.518       .  S
C1931      C1981   1.481       .  S
C1936      C1937   1.413       .  A
C1936      C1941   1.398       .  A
C1936      C2497   1.486       .  S
C1937      C1938   1.419       .  A
C1937      H1942   1.081       .  S
C1938      C1939   1.418       .  A
C1939      C1940   1.414       .  A
C1939      H1943   1.081       .  S
C1940      C1941   1.396       .  A
C1940      C1967   1.492       .  S
C1941      H1944   1.084       .  S
Zr1945     O1946   2.434       .  S
Zr1945     O1947   2.400       .  S
Zr1945     O1948   2.517       .  S
Zr1945     O1951   2.527       .  S
Zr1945     O1953   2.382       .  S
Zr1945     O1954   2.392       .  S
Zr1945     O1955   2.432       .  S
Zr1945     O1956   2.409       .  S
O1946      H2002   0.990       .  S
O1946      H2010   0.990       .  S
O1947      C1967   1.279       .  A
O1948      C1969   1.294       .  A
O1949     Zr1959   2.375       .  S
O1949      C1968   1.273       .  A
O1950     Zr1958   2.385       .  S
O1950      C1969   1.266       .  A
O1951      C1968   1.304       .  A
O1952     Zr1960   2.476       .  S
O1952      C1967   1.294       .  A
O1953     Zr1958   2.380       .  S
O1953     Zr1960   2.328       .  S
O1954     Zr1959   2.378       .  S
O1954     Zr1960   2.370       .  S
O1954      H1989   0.966       .  S
O1955     Zr1958   2.407       .  S
O1955     Zr1975   2.396       .  S
O1955      H1992   0.965       .  S
O1956     Zr1959   2.395       .  S
O1956     Zr1975   2.414       .  S
Zr1957     O1982   2.435       .  S
Zr1957     O1976   2.390       .  S
Zr1957     O1984   2.497       .  S
Zr1957     O1972   2.506       .  S
Zr1957     O1963   2.416       .  S
Zr1957     O1964   2.412       .  S
Zr1957     O1965   2.379       .  S
Zr1957     O1966   2.383       .  S
Zr1958     O1977   2.438       .  S
Zr1958     O1970   2.434       .  S
Zr1958     O1971   2.411       .  S
Zr1958     O1964   2.399       .  S
Zr1958     O1965   2.364       .  S
Zr1959     O1961   2.437       .  S
Zr1959     O1983   2.438       .  S
Zr1959     O1985   2.383       .  S
Zr1959     O1963   2.387       .  S
Zr1959     O1966   2.375       .  S
Zr1960     O1986   2.437       .  S
Zr1960     O1987   2.434       .  S
Zr1960     O1962   2.438       .  S
Zr1960     O1963   2.413       .  S
Zr1960     O1964   2.428       .  S
O1961      H1998   0.991       .  S
O1962      H1993   0.990       .  S
O1962      H2007   0.990       .  S
O1964      H1990   0.966       .  S
O1965     Zr1975   2.367       .  S
O1966     Zr1975   2.353       .  S
O1966      H1991   0.963       .  S
O1970      H2006   0.990       .  S
O1971      C1973   1.278       .  A
O1972      C1973   1.300       .  A
O1974     Zr1975   2.438       .  S
O1974      H2003   0.990       .  S
Zr1975     O1978   2.434       .  S
Zr1975     O1979   2.441       .  S
Zr1975     O1980   2.455       .  S
O1976      C1981   1.279       .  A
O1977      H1994   0.990       .  S
O1977      H2009   0.990       .  S
O1978      H1995   0.990       .  S
O1979      H1999   0.990       .  S
O1979      H2008   0.990       .  S
O1980      C1981   1.290       .  A
O1982      H2001   0.990       .  S
O1982      H2005   0.990       .  S
O1983      H1997   0.990       .  S
O1983      H2004   0.990       .  S
O1984      C1988   1.298       .  A
O1985      C1988   1.276       .  A
O1986      H1996   0.991       .  S
O1987      H2000   0.990       .  S
Zr2011     O2012   2.444       .  S
Zr2011     O2013   2.452       .  S
Zr2011     O2014   2.423       .  S
Zr2011     O2017   2.396       .  S
Zr2011     O2019   2.376       .  S
Zr2011     O2020   2.383       .  S
Zr2011     O2021   2.410       .  S
Zr2011     O2022   2.404       .  S
O2012      H2068   0.990       .  S
O2012      H2076   0.991       .  S
O2013      C2033   1.285       .  A
O2014      C2035   1.282       .  A
O2015     Zr2025   2.456       .  S
O2015      C2034   1.285       .  A
O2016     Zr2024   2.447       .  S
O2016      C2035   1.284       .  A
O2017      C2034   1.275       .  A
O2018     Zr2026   2.434       .  S
O2018      C2033   1.283       .  A
O2019     Zr2024   2.409       .  S
O2019     Zr2026   2.386       .  S
O2020     Zr2025   2.397       .  S
O2020     Zr2026   2.371       .  S
O2020      H2055   0.965       .  S
O2021     Zr2024   2.409       .  S
O2021     Zr2041   2.405       .  S
O2021      H2058   0.965       .  S
O2022     Zr2025   2.399       .  S
O2022     Zr2041   2.396       .  S
Zr2023     O2048   2.441       .  S
Zr2023     O2042   2.429       .  S
Zr2023     O2050   2.401       .  S
Zr2023     O2038   2.385       .  S
Zr2023     O2029   2.399       .  S
Zr2023     O2030   2.402       .  S
Zr2023     O2031   2.366       .  S
Zr2023     O2032   2.380       .  S
Zr2024     O2043   2.437       .  S
Zr2024     O2036   2.433       .  S
Zr2024     O2037   2.473       .  S
Zr2024     O2030   2.394       .  S
Zr2024     O2031   2.391       .  S
Zr2025     O2027   2.436       .  S
Zr2025     O2049   2.438       .  S
Zr2025     O2051   2.463       .  S
Zr2025     O2029   2.392       .  S
Zr2025     O2032   2.400       .  S
Zr2026     O2052   2.438       .  S
Zr2026     O2053   2.440       .  S
Zr2026     O2028   2.439       .  S
Zr2026     O2029   2.389       .  S
Zr2026     O2030   2.402       .  S
O2027      H2064   0.990       .  S
O2028      H2059   0.990       .  S
O2028      H2073   0.991       .  S
O2030      H2056   0.965       .  S
O2031     Zr2041   2.371       .  S
O2032     Zr2041   2.376       .  S
O2032      H2057   0.965       .  S
C2033      C2489   1.482       .  S
C2034      C2494   1.473       .  S
C2035      C2485   1.481       .  S
O2036      H2072   0.990       .  S
O2037      C2039   1.291       .  A
O2038      C2039   1.278       .  A
C2039      C2502   1.485       .  S
O2040     Zr2041   2.435       .  S
O2040      H2069   0.990       .  S
Zr2041     O2044   2.435       .  S
Zr2041     O2045   2.439       .  S
Zr2041     O2046   2.437       .  S
O2042      C2047   1.284       .  A
O2043      H2060   0.990       .  S
O2043      H2075   0.990       .  S
O2044      H2061   0.990       .  S
O2045      H2074   0.990       .  S
O2046      C2047   1.283       .  A
C2047      C2506   1.480       .  S
O2048      H2067   0.990       .  S
O2048      H2071   0.990       .  S
O2049      H2063   0.990       .  S
O2049      H2070   0.990       .  S
O2050      C2054   1.277       .  A
O2051      C2054   1.286       .  A
O2052      H2062   0.990       .  S
O2053      H2066   0.990       .  S
C2054      C2514   1.473       .  S
C2077      C2078   1.407       .  A
C2077      C2082   1.400       .  A
C2077      C2482   1.474       .  S
C2078      C2079   1.410       .  A
C2078      H2083   1.078       .  S
C2079      C2080   1.433       .  A
C2079      C2088   1.543       .  S
C2080      C2081   1.429       .  A
C2081      C2082   1.396       .  A
C2081      C2155   1.499       .  S
C2082      H2085   1.084       .  S
C2086      C2087   1.407   1_545  A
C2086      C2091   1.403       .  A
C2087      C2088   1.410       .  A
C2087      H2092   1.078       .  S
C2088      C2089   1.435       .  A
C2089      C2090   1.428   1_565  A
C2089      H2093   1.077       .  S
C2090      C2091   1.392       .  A
C2090      C2174   1.501       .  S
C2091      H2094   1.082       .  S
C2095      C2096   1.400       .  A
C2095      C2100   1.413       .  A
C2095      C2477   1.488       .  S
C2096      C2097   1.388       .  A
C2096      H2101   1.084       .  S
C2097      C2098   1.407       .  A
C2097      C2167   1.470       .  S
C2098      C2099   1.404       .  A
C2098      H2102   1.080       .  S
C2099      C2100   1.427       .  A
C2099      C2106   1.516       .  S
C2100      H2103   1.081       .  S
C2104      C2105   1.415       .  A
C2104      C2109   1.399       .  A
C2104      C2490   1.494       .  S
C2105      C2106   1.428       .  A
C2105      H2110   1.080       .  S
C2106      C2107   1.403       .  A
C2107      C2108   1.406       .  A
C2107      H2111   1.080       .  S
C2108      C2109   1.393       .  A
C2108      C2153   1.473       .  S
C2109      H2112   1.083       .  S
C2113      C2114   1.408       .  A
C2113      C2118   1.411       .  A
C2113      C2474   1.486       .  S
C2114      C2115   1.410       .  A
C2114      H2119   1.078       .  S
C2115      C2116   1.423       .  A
C2116      C2117   1.419       .  A
C2116      H2120   1.079       .  S
C2117      C2118   1.403       .  A
C2117      C2154   1.486       .  S
C2118      H2121   1.083       .  S
C2122      C2123   1.410       .  A
C2122      C2127   1.404       .  A
C2122      C2486   1.484       .  S
C2123      H2128   1.084       .  S
C2124      C2125   1.422       .  A
C2125      C2126   1.424       .  A
C2125      H2129   1.079       .  S
C2127      H2130   1.078       .  S
Zr2131     O2132   2.435       .  S
Zr2131     O2133   2.379       .  S
Zr2131     O2134   2.513       .  S
Zr2131     O2137   2.526       .  S
Zr2131     O2139   2.385       .  S
Zr2131     O2140   2.388       .  S
Zr2131     O2141   2.409       .  S
Zr2131     O2142   2.410       .  S
O2132      H2188   0.990       .  S
O2132      H2196   0.990       .  S
O2133      C2153   1.276       .  A
O2134      C2155   1.302       .  A
O2135     Zr2145   2.368   1_655  S
O2135      C2154   1.272       .  A
O2136      C2155   1.275       .  A
O2137      C2154   1.303       .  A
O2138     Zr2146   2.447       .  S
O2138      C2153   1.288       .  A
O2139     Zr2146   2.368       .  S
O2140     Zr2145   2.382   1_655  S
O2140     Zr2146   2.365       .  S
O2140      H2175   0.965       .  S
O2141      H2178   0.966       .  S
O2142     Zr2145   2.396   1_655  S
Zr2143     O2168   2.435       .  S
Zr2143     O2162   2.355       .  S
Zr2143     O2170   2.538       .  S
Zr2143     O2158   2.528       .  S
Zr2144     O2163   2.438       .  S
Zr2144     O2156   2.437       .  S
Zr2144     O2157   2.356       .  S
Zr2144     O2150   2.396       .  S
Zr2144     O2151   2.375       .  S
Zr2145     O2169   2.436       .  S
Zr2145     O2149   2.393       .  S
Zr2146     O2172   2.438       .  S
Zr2146     O2173   2.437       .  S
Zr2146     O2148   2.439       .  S
Zr2146     O2149   2.412   1_655  S
O2147      H2184   0.990       .  S
O2148      H2179   0.990       .  S
O2148      H2193   0.990       .  S
O2150      H2176   0.966       .  S
O2151     Zr2161   2.361       .  S
O2157      C2159   1.270       .  A
Zr2161     O2164   2.437       .  S
O2162      C2167   1.272       .  A
O2163      H2180   0.990       .  S
O2163      H2195   0.990       .  S
O2165      H2194   0.990   1_545  S
O2166      C2167   1.293       .  A
O2168      H2187   0.990       .  S
O2168      H2191   0.990       .  S
O2169      H2190   0.990   1_455  S
O2171      C2174   1.275   1_565  A
O2172      H2182   0.990       .  S
O2173      H2186   0.990       .  S
C2197      C2198   1.400       .  A
C2197      C2202   1.417       .  A
C2197      C2470   1.492       .  S
C2198      C2199   1.390       .  A
C2198      H2203   1.085       .  S
C2199      C2200   1.414       .  A
C2199      C2274   1.473       .  S
C2200      C2201   1.416       .  A
C2200      H2204   1.081       .  S
C2201      C2202   1.426       .  A
C2201      C2210   1.520       .  S
C2202      H2205   1.082       .  S
C2206      C2207   1.409       .  A
C2206      C2211   1.419       .  A
C2206      C2466   1.500       .  S
C2207      C2208   1.400       .  A
C2208      C2209   1.414       .  A
C2209      C2210   1.409       .  A
C2209      H2213   1.083       .  S
C2210      C2211   1.423       .  A
C2211      H2214   1.081       .  S
C2215      C2216   1.397       .  A
C2215      C2220   1.413       .  A
C2215      C2462   1.481       .  S
C2216      C2217   1.394       .  A
C2216      H2221   1.085       .  S
C2217      C2218   1.421       .  A
C2218      C2219   1.432       .  A
C2218      H2222   1.077       .  S
C2219      C2220   1.416       .  A
C2219      C2228   1.540       .  S
C2220      H2223   1.080       .  S
C2224      C2225   1.404       .  A
C2224      C2457   1.493   1_655  S
C2225      C2226   1.395       .  A
C2225      H2230   1.080       .  S
C2226      C2227   1.422       .  A
C2226      C2294   1.490       .  S
C2227      H2231   1.081       .  S
C2228      C2229   1.414       .  A
C2229      H2232   1.077       .  S
C2233      C2234   1.403       .  A
C2233      C2238   1.399       .  A
C2233      C2453   1.473       .  S
C2234      C2235   1.400       .  A
C2234      H2239   1.083       .  S
C2235      C2236   1.416       .  A
C2235      C2273   1.492       .  S
C2236      C2237   1.414       .  A
C2236      H2240   1.078       .  S
C2237      C2238   1.410       .  A
C2238      H2241   1.079       .  S
C2242      C2243   1.411   1_655  A
C2242      C2247   1.399       .  A
C2242      C2449   1.483   1_655  S
C2243      C2244   1.416       .  A
C2244      C2245   1.419   1_455  A
C2245      C2246   1.411       .  A
C2245      H2249   1.073       .  S
C2246      C2247   1.395       .  A
C2246      C2287   1.486       .  S
C2247      H2250   1.081       .  S
Zr2251     O2252   2.435       .  S
Zr2251     O2253   2.390       .  S
Zr2251     O2254   2.510       .  S
Zr2251     O2257   2.482       .  S
Zr2251     O2259   2.376       .  S
Zr2251     O2260   2.408       .  S
Zr2251     O2261   2.408       .  S
Zr2251     O2262   2.414       .  S
O2252      H2308   0.990       .  S
O2252      H2316   0.990       .  S
O2253      C2273   1.278       .  A
O2254      C2275   1.299       .  A
O2255     Zr2265   2.378       .  S
O2255      C2274   1.266       .  A
O2256     Zr2264   2.401       .  S
O2256      C2275   1.275       .  A
O2257      C2274   1.288       .  A
O2258     Zr2266   2.479       .  S
O2258      C2273   1.294       .  A
O2259     Zr2264   2.372       .  S
O2259     Zr2266   2.357       .  S
O2260     Zr2265   2.390       .  S
O2260     Zr2266   2.366       .  S
O2260      H2295   0.966       .  S
O2261     Zr2264   2.398       .  S
O2261     Zr2281   2.407       .  S
O2261      H2298   0.966       .  S
O2262     Zr2265   2.405       .  S
O2262     Zr2281   2.395       .  S
Zr2263     O2288   2.441       .  S
Zr2263     O2282   2.400       .  S
Zr2263     O2290   2.508       .  S
Zr2263     O2278   2.495       .  S
Zr2263     O2269   2.411       .  S
Zr2263     O2270   2.426       .  S
Zr2263     O2271   2.373       .  S
Zr2263     O2272   2.379       .  S
Zr2264     O2283   2.439       .  S
Zr2264     O2276   2.436       .  S
Zr2264     O2277   2.390       .  S
Zr2264     O2270   2.396       .  S
Zr2264     O2271   2.377       .  S
Zr2265     O2267   2.440       .  S
Zr2265     O2289   2.439       .  S
Zr2265     O2291   2.398       .  S
Zr2265     O2269   2.386       .  S
Zr2265     O2272   2.379       .  S
Zr2266     O2292   2.438       .  S
Zr2266     O2293   2.435       .  S
Zr2266     O2268   2.440       .  S
Zr2266     O2269   2.424       .  S
Zr2266     O2270   2.422       .  S
O2267      H2304   0.991       .  S
O2268      H2299   0.990       .  S
O2268      H2313   0.990       .  S
O2270      H2296   0.966       .  S
O2271     Zr2281   2.356       .  S
O2272     Zr2281   2.362       .  S
O2272      H2297   0.964       .  S
O2276      H2312   0.990       .  S
O2277      C2279   1.278       .  A
O2278      C2279   1.297       .  A
O2280     Zr2281   2.434       .  S
O2280      H2309   0.990       .  S
Zr2281     O2284   2.436       .  S
Zr2281     O2285   2.438       .  S
Zr2281     O2286   2.460       .  S
O2282      C2287   1.280       .  A
O2283      H2315   0.990       .  S
O2284      H2301   0.990       .  S
O2285      H2305   0.990       .  S
O2285      H2314   0.990       .  S
O2286      C2287   1.291       .  A
O2288      H2307   0.990       .  S
O2288      H2311   0.990       .  S
O2289      H2303   0.990       .  S
O2289      H2310   0.988       .  S
O2290      C2294   1.300       .  A
O2291      C2294   1.276       .  A
O2292      H2302   0.990       .  S
O2293      H2306   0.990       .  S
Zr2317     O2319   2.461       .  S
Zr2317     O2320   2.389       .  S
Zr2317     O2325   2.373       .  S
Zr2317     O2327   2.402   1_655  S
O2318      H2374   0.990   1_545  S
O2318      H2382   0.990   1_545  S
O2319      C2339   1.287       .  A
O2320      C2341   1.277       .  A
O2321      C2340   1.285       .  A
O2322     Zr2330   2.468       .  S
O2322      C2341   1.290       .  A
O2323      C2340   1.280       .  A
O2324     Zr2332   2.441       .  S
O2324      C2339   1.285       .  A
O2325     Zr2330   2.408       .  S
O2325     Zr2332   2.380       .  S
O2326     Zr2331   2.396       .  S
O2326      H2361   0.966       .  S
O2327     Zr2330   2.397   1_455  S
Zr2329     O2354   2.438       .  S
Zr2329     O2348   2.411       .  S
Zr2329     O2344   2.411       .  S
Zr2329     O2336   2.400   1_554  S
Zr2329     O2337   2.377       .  S
Zr2330     O2349   2.441       .  S
Zr2330     O2342   2.433       .  S
Zr2330     O2343   2.468   1_556  S
Zr2330     O2336   2.411       .  S
Zr2330     O2337   2.388   1_556  S
Zr2331     O2355   2.434       .  S
Zr2331     O2357   2.448   1_556  S
Zr2331     O2335   2.399       .  S
Zr2332     O2359   2.438       .  S
Zr2332     O2334   2.438       .  S
Zr2332     O2336   2.409       .  S
O2333      H2370   0.990       .  S
O2334      H2365   0.990       .  S
O2334      H2379   0.990       .  S
O2336      H2362   0.965   1_556  S
O2338      H2363   0.965       .  S
C2339      C2465   1.494       .  S
C2340      C2454   1.464       .  S
C2341      C2458   1.482       .  S
O2342      H2378   0.990       .  S
O2343      C2345   1.289       .  A
O2344      C2345   1.281       .  A
C2345      C2498   1.474       .  S
O2346     Zr2347   2.436   1_545  S
O2346      H2375   0.990       .  S
Zr2347     O2350   2.435       .  S
Zr2347     O2352   2.468   1_556  S
O2349      H2366   0.990   1_655  S
O2349      H2381   0.989       .  S
O2350      H2367   0.990   1_556  S
O2351      H2371   0.990       .  S
O2351      H2380   0.990       .  S
O2352      C2353   1.290       .  A
C2353      C2518   1.483       .  S
O2354      H2373   0.990       .  S
O2354      H2377   0.990       .  S
O2355      H2369   0.990       .  S
O2355      H2376   0.990       .  S
O2356      C2360   1.282       .  A
O2357      C2360   1.286       .  A
O2359      H2372   0.989   1_556  S
C2360      C2509   1.479       .  S
Zr2383     O2384   2.440       .  S
Zr2383     O2385   2.411       .  S
Zr2383     O2386   2.398       .  S
Zr2383     O2389   2.391       .  S
Zr2383     O2391   2.372       .  S
Zr2383     O2392   2.378       .  S
Zr2383     O2393   2.392       .  S
Zr2383     O2394   2.394       .  S
O2384      H2440   0.990       .  S
O2384      H2448   0.990       .  S
O2385      C2405   1.279       .  A
O2386      C2407   1.278       .  A
O2387     Zr2397   2.447       .  S
O2387      C2406   1.285       .  A
O2388     Zr2396   2.486       .  S
O2388      C2407   1.294       .  A
O2389      C2406   1.278       .  A
O2390     Zr2398   2.451       .  S
O2390      C2405   1.287       .  A
O2391     Zr2396   2.399       .  S
O2391     Zr2398   2.373       .  S
O2392     Zr2397   2.389       .  S
O2392     Zr2398   2.374       .  S
O2392      H2427   0.966       .  S
O2393     Zr2396   2.398       .  S
O2393     Zr2413   2.396       .  S
O2393      H2430   0.966       .  S
O2394     Zr2397   2.404       .  S
O2394     Zr2413   2.395       .  S
Zr2395     O2420   2.440       .  S
Zr2395     O2414   2.440       .  S
Zr2395     O2422   2.410       .  S
Zr2395     O2410   2.368       .  S
Zr2395     O2401   2.390       .  S
Zr2395     O2402   2.409       .  S
Zr2395     O2403   2.374       .  S
Zr2395     O2404   2.375       .  S
Zr2396     O2415   2.438       .  S
Zr2396     O2408   2.434       .  S
Zr2396     O2409   2.480       .  S
Zr2396     O2402   2.409       .  S
Zr2396     O2403   2.390       .  S
Zr2397     O2399   2.434       .  S
Zr2397     O2423   2.454       .  S
Zr2397     O2401   2.391       .  S
Zr2397     O2404   2.392       .  S
Zr2398     O2424   2.436       .  S
Zr2398     O2425   2.436       .  S
Zr2398     O2400   2.436       .  S
Zr2398     O2401   2.403       .  S
Zr2398     O2402   2.407       .  S
O2400      H2431   0.990       .  S
O2400      H2445   0.990       .  S
O2402      H2428   0.966       .  S
O2403     Zr2413   2.364       .  S
O2404     Zr2413   2.384       .  S
O2404      H2429   0.966       .  S
C2405      C2461   1.476       .  S
C2406      C2450   1.475       .  S
C2407      C2469   1.481       .  S
O2408      H2444   0.990       .  S
O2409      C2411   1.292       .  A
O2410      C2411   1.275       .  A
C2411      C2481   1.483       .  S
O2412     Zr2413   2.437       .  S
O2412      H2441   0.990       .  S
Zr2413     O2416   2.437       .  S
Zr2413     O2417   2.436       .  S
Zr2413     O2418   2.423       .  S
O2414      C2419   1.284       .  A
O2415      H2432   0.990       .  S
O2415      H2447   0.990       .  S
O2416      H2433   0.990       .  S
O2417      H2437   0.990       .  S
O2417      H2446   0.990       .  S
O2418      C2419   1.281       .  A
C2419      C2478   1.474       .  S
O2420      H2439   0.990       .  S
O2420      H2443   0.990       .  S
O2421      H2435   0.990       .  S
O2422      C2426   1.282       .  A
O2423      C2426   1.286       .  A
O2424      H2434   0.991       .  S
O2425      H2438   0.990       .  S
C2453      C2454   1.341       .  D
C2453      H2455   1.089       .  S
C2454      H2456   1.086       .  S
C2457      C2458   1.358   1_455  D
C2457      H2459   1.088       .  S
C2458      H2460   1.083       .  S
C2461      C2462   1.342       .  D
C2461      H2463   1.088       .  S
C2462      H2464   1.086       .  S
C2465      C2466   1.354       .  D
C2465      H2467   1.087       .  S
C2466      H2468   1.086       .  S
C2469      C2470   1.343       .  D
C2469      H2471   1.086       .  S
C2470      H2472   1.089       .  S
C2473      C2474   1.346       .  D
C2474      H2476   1.089       .  S
C2477      C2478   1.348       .  D
C2477      H2479   1.086       .  S
C2478      H2480   1.088       .  S
C2481      C2482   1.355       .  D
C2481      H2483   1.086       .  S
C2482      H2484   1.087       .  S
C2485      C2486   1.346       .  D
C2485      H2487   1.086       .  S
C2486      H2488   1.088       .  S
C2489      C2490   1.352       .  D
C2489      H2491   1.087       .  S
C2490      H2492   1.086       .  S
C2493      C2494   1.351       .  D
C2494      H2496   1.085       .  S
C2497      C2498   1.339       .  D
C2497      H2499   1.088       .  S
C2498      H2500   1.087       .  S
C2501      C2502   1.356       .  D
C2501      H2503   1.087       .  S
C2502      H2504   1.084       .  S
C2505      C2506   1.348       .  D
C2505      H2507   1.087       .  S
C2506      H2508   1.086       .  S
C2509      C2510   1.349       .  D
C2509      H2511   1.083       .  S
C2510      H2512   1.088       .  S
C2513      C2514   1.343       .  D
C2513      H2515   1.087       .  S
C2514      H2516   1.086       .  S
C2517      C2518   1.351   1_545  D
C2517      H2519   1.086       .  S
