geometry optimzed in LAMMPS
_audit_creation_date              2020-11-30 
_audit_creation_method            'lammps2cif' 
_symmetry_space_group_name_H-M    'P1' 
_symmetry_Int_Tables_number       1 
_symmetry_cell_setting            triclinic 
loop_ 
_symmetry_equiv_pos_as_xyz 
  x,y,z 
_cell_length_a                    33.48363102890338 
_cell_length_b                    33.48133475714406 
_cell_length_c                    38.06950850385315 
_cell_angle_alpha                 89.9739719371267 
_cell_angle_beta                  89.96620992275022 
_cell_angle_gamma                 122.0223179996479 
loop_ 
_atom_site_label 
_atom_site_type_symbol 
_atom_site_fract_x 
_atom_site_fract_y 
_atom_site_fract_z 
_atom_site_charge 
O1          O  0.55966984  0.20276582  0.14439044    -0.52380
C2          C  0.51756158  0.12382904  0.23028271     0.80250
O3          O  0.42740943  0.17079920  0.20564863    -0.53530
C4          C  0.54850654  0.22698380  0.12628725     0.80230
C5          C  0.42369041  0.06625926  0.14169001     0.82620
Cd6        Cd  0.48431957  0.15547995  0.17517940     1.37460
O7          O  0.54539543  0.15148297  0.20687787    -0.52370
O8          O  0.46717025  0.08330221  0.14614137    -0.51180
C9          C  0.45814535  0.19944872  0.22723428     0.82580
O10         O  0.40808030  0.09237351  0.14932937    -0.53550
O11         O  0.47427952  0.10846585  0.22690562    -0.52010
O12         O  0.50652025  0.21719134  0.12915129    -0.52000
O13         O  0.50005974  0.21052079  0.22231325    -0.51170
O14         O  0.54840827  0.40528354  0.33850693    -0.52380
C15         C  0.54780242  0.33288560  0.41787833     0.80250
O16         O  0.40685112  0.31530530  0.39348432    -0.53530
C17         C  0.52225165  0.40625518  0.31499784     0.80230
C18         C  0.45837890  0.26605520  0.31475995     0.82620
Cd19       Cd  0.48446537  0.33635516  0.36815047     1.37470
O20         O  0.55782824  0.37000594  0.40174288    -0.52370
O21         O  0.50035277  0.29905070  0.32004331    -0.51180
C22         C  0.42053375  0.35756209  0.40092262     0.82580
O23         O  0.42761131  0.26187939  0.33641503    -0.53550
O24         O  0.50710327  0.29688597  0.41277751    -0.52010
O25         O  0.47846978  0.37715642  0.31739790    -0.52000
O26         O  0.46366903  0.38807258  0.39651815    -0.51170
O27         O  0.62080150  0.19847765  0.40563926    -0.52380
C28         C  0.58280168  0.12476861  0.31778125     0.80250
O29         O  0.72674065  0.18263435  0.33792100    -0.53530
C30         C  0.65902225  0.22879100  0.42004764     0.80230
C31         C  0.63345684  0.07439253  0.40300591     0.82620
Cd32       Cd  0.65299351  0.16048788  0.37054456     1.37470
O33         O  0.58355686  0.15139524  0.34169705    -0.52370
O34         O  0.60244065  0.08465864  0.39942006    -0.51180
C35         C  0.72196976  0.20862867  0.31631036     0.82580
O36         O  0.67535017  0.10588456  0.39494789    -0.53550
O37         O  0.61182335  0.11173124  0.31988108    -0.52010
O38         O  0.69477115  0.22633332  0.41355458    -0.52000
O39         O  0.68892435  0.21544774  0.32194041    -0.51170
O40         O  0.84720581  0.41488370  0.20235973    -0.52380
C41         C  0.76960403  0.33932242  0.12403973     0.80250
O42         O  0.89265411  0.32314899  0.14901782    -0.53530
C43         C  0.87369619  0.41548580  0.22632136     0.80230
C44         C  0.78979221  0.27639758  0.22767189     0.82620
Cd45       Cd  0.83798931  0.34540478  0.17347224     1.37470
O46         O  0.79985708  0.37753860  0.13849091    -0.52370
O47         O  0.78296726  0.30943672  0.22202645    -0.51180
C48         C  0.92410612  0.36506043  0.14096116     0.82580
O49         O  0.81582504  0.27164198  0.20608646    -0.53550
O50         O  0.77216923  0.30361560  0.13045029    -0.52010
O51         O  0.88662262  0.38637491  0.22422357    -0.52000
O52         O  0.91379276  0.39604102  0.14457539    -0.51170
C53         C  0.65895534  0.33827976  0.46767507     0.02950
C54         C  0.66003427  0.33932560  0.07651356     0.02950
O55         O  0.79554260  0.43849756  0.39981171    -0.52380
C56         C  0.87455317  0.48057549  0.31389795     0.80250
O57         O  0.82760366  0.57075578  0.33856009    -0.53530
C58         C  0.77137121  0.44972759  0.41791051     0.80230
C59         C  0.93215920  0.57442998  0.40245729     0.82620
Cd60       Cd  0.84291287  0.51382983  0.36900683     1.37460
O61         O  0.84687849  0.45272989  0.33729019    -0.52370
O62         O  0.91506298  0.53092733  0.39806007    -0.51180
C63         C  0.79898175  0.54003522  0.31695281     0.82580
O64         O  0.90608132  0.59007289  0.39479770    -0.53550
O65         O  0.88993271  0.52386189  0.31729318    -0.52010
O66         O  0.78123416  0.49173911  0.41503878    -0.52000
O67         O  0.78792215  0.49811736  0.32184752    -0.51170
O68         O  0.62842320  0.44050694  0.14250535    -0.52380
C69         C  0.59225389  0.47622485  0.22923727     0.80250
O70         O  0.73658357  0.57071507  0.20783103    -0.53530
C71         C  0.66552064  0.45051584  0.12634314     0.80230
C72         C  0.64099962  0.57785924  0.14321832     0.82620
Cd73       Cd  0.66212524  0.51390663  0.17606442     1.37460
O74         O  0.59314940  0.45003739  0.20571325    -0.52370
O75         O  0.61045633  0.53474393  0.14768235    -0.51180
C76         C  0.73241223  0.53990695  0.22944215     0.82580
O77         O  0.68324612  0.59151353  0.15065577    -0.53550
O78         O  0.62141461  0.51999697  0.22684147    -0.52010
O79         O  0.70153106  0.49121555  0.13142232    -0.52000
O80         O  0.69942883  0.49793680  0.22411831    -0.51170
O81         O  0.19895079  0.56387386  0.14416777    -0.52380
C82         C  0.12012333  0.52185691  0.23013195     0.80250
O83         O  0.08843444  0.41234954  0.14910857    -0.53530
C84         C  0.22315280  0.55267788  0.12607430     0.80230
C85         C  0.19548539  0.46221269  0.22698671     0.82620
Cd86       Cd  0.15162043  0.48853841  0.17496849     1.37470
O87         O  0.14780045  0.54968764  0.20673509    -0.52370
O88         O  0.20665493  0.50416034  0.22206949    -0.51180
C89         C  0.06233811  0.42800087  0.14153793     0.82580
O90         O  0.16679044  0.43150691  0.20540413    -0.53550
O91         O  0.10467718  0.47855837  0.22672066    -0.52010
O92         O  0.21332090  0.51067576  0.12894030    -0.52000
O93         O  0.07942653  0.47148853  0.14601527    -0.51170
O94         O  0.40107820  0.55257808  0.33825859    -0.52380
C95         C  0.32882458  0.55190009  0.41768122     0.80250
O96         O  0.25790313  0.43158986  0.33612346    -0.53530
C97         C  0.40213559  0.52644272  0.31476915     0.80230
C98         C  0.35346801  0.42466980  0.40078096     0.82620
Cd99       Cd  0.33225588  0.48855740  0.36793630     1.37470
O100        O  0.36595568  0.56187688  0.40158662    -0.52370
O101        O  0.38400845  0.46776590  0.39622503    -0.51180
C102        C  0.26195103  0.46237555  0.31454489     0.82580
O103        O  0.31119645  0.41100981  0.39342965    -0.53550
O104        O  0.29278595  0.51124127  0.41252933    -0.52010
O105        O  0.37313659  0.48264048  0.31719558    -0.52000
O106        O  0.29479974  0.50439065  0.31991629    -0.51170
O107        O  0.44883748  0.85069160  0.33707311    -0.52380
C108        C  0.44592996  0.77543724  0.41770038     0.80250
O109        O  0.56712545  0.83188647  0.33830663    -0.53530
C110        C  0.47663230  0.87843334  0.31368995     0.80230
C111        C  0.57059175  0.93619034  0.40228279     0.82620
Cd112      Cd  0.51005083  0.84695374  0.36879148     1.37460
O113        O  0.43474611  0.79966087  0.39962667    -0.52370
O114        O  0.52711928  0.91913543  0.39777616    -0.51180
C115        C  0.53642544  0.80315676  0.31673832     0.82580
O116        O  0.58622962  0.91008606  0.39469377    -0.53550
O117        O  0.48791158  0.78522736  0.41479861    -0.52010
O118        O  0.51994552  0.89395393  0.31708592    -0.52000
O119        O  0.49446567  0.79192422  0.32168246    -0.51170
O120        O  0.43676480  0.63264519  0.14221066    -0.52380
C121        C  0.47221147  0.59648932  0.22902691     0.80250
O122        O  0.58767128  0.68731001  0.15043176    -0.53530
C123        C  0.44675557  0.66976913  0.12609775     0.80230
C124        C  0.53628287  0.73668273  0.22918703     0.82620
Cd125      Cd  0.51010286  0.66632927  0.17583035     1.37470
O126        O  0.44608981  0.59748675  0.20550058    -0.52370
O127        O  0.49428217  0.70377355  0.22386639    -0.51180
C128        C  0.57398459  0.64502611  0.14308748     0.82580
O129        O  0.56704981  0.74076280  0.20757353    -0.53550
O130        O  0.51600443  0.62553574  0.22662988    -0.52010
O131        O  0.48743686  0.70579021  0.13121261    -0.52000
O132        O  0.53086543  0.61452221  0.14757529    -0.51170
C133        C  0.33440782  0.66313807  0.46749991     0.02950
C134        C  0.33550730  0.66421960  0.07633207     0.02950
O135        O  0.14760879  0.58777232  0.34161982    -0.52380
C136        C  0.22488945  0.66323112  0.41998217     0.80250
O137        O  0.17843779  0.73077253  0.33786866    -0.53530
C138        C  0.12097711  0.58699182  0.31770211     0.80230
C139        C  0.07038390  0.63740244  0.40303267     0.82620
Cd140      Cd  0.15651490  0.65710565  0.37052458     1.37460
O141        O  0.19455720  0.62498070  0.40561563    -0.52370
O142        O  0.08067727  0.60641594  0.39935172    -0.51180
C143        C  0.20454014  0.72610870  0.31629486     0.82580
O144        O  0.10185707  0.67933199  0.39503964    -0.53550
O145        O  0.22240882  0.69896632  0.41347974    -0.52010
O146        O  0.10783781  0.61593172  0.31983425    -0.52220
O147        O  0.21152061  0.69317933  0.32197105    -0.51170
O148        O  0.37347093  0.80402432  0.13827185    -0.52380
C149        C  0.41134395  0.87750805  0.22620013     0.80250
O150        O  0.31887007  0.89651858  0.14893222    -0.53530
C151        C  0.33525214  0.77364586  0.12389715     0.80230
C152        C  0.27220055  0.79380076  0.22760642     0.82620
Cd153      Cd  0.34121021  0.84192138  0.17339435     1.37460
O154        O  0.41058796  0.85090712  0.20226303    -0.52370
O155        O  0.30518702  0.78690186  0.22194826    -0.51180
C156        C  0.36078499  0.92805143  0.14096243     0.82580
O157        O  0.26748757  0.81985871  0.20602251    -0.53550
O158        O  0.38235285  0.89058451  0.22410553    -0.52010
O159        O  0.29946662  0.77603396  0.13040809    -0.52000
O160        O  0.39181389  0.91781612  0.14462283    -0.51170
C161        C  0.24319216  0.77397616  0.25828140    -0.07830
C162        C  0.22433085  0.75510894  0.28561269    -0.09390
C163        C  0.33271469  0.73674449  0.10276069    -0.07830
C164        C  0.33323850  0.70450818  0.08894918    -0.09390
C165        C  0.26184015  0.66585960  0.44110245    -0.07830
C166        C  0.29410914  0.66539224  0.45490127    -0.09390
C167        C  0.33546286  0.66349698  0.03778600    -0.07830
C168        C  0.33515275  0.66319160  0.00604557    -0.09390
C169        C  0.37880886  0.66854919  0.08991063    -0.07830
C170        C  0.41208414  0.67077463  0.10439757    -0.09390
C171        C  0.44073136  0.88870516  0.25619990    -0.07830
C172        C  0.45930844  0.88880451  0.28312965    -0.09390
C173        C  0.41133790  0.73735942  0.43928825    -0.07830
C174        C  0.37809281  0.70422236  0.45379210    -0.09390
C175        C  0.54754999  0.76627998  0.25954652    -0.07830
C176        C  0.54768231  0.78498115  0.28669018    -0.09390
C177        C  0.43229068  0.54609519  0.28507163    -0.07830
C178        C  0.45254984  0.56634658  0.25872959    -0.09390
C179        C  0.32783303  0.58656262  0.43940563    -0.07830
C180        C  0.33006990  0.61983348  0.45391440    -0.09390
C181        C  0.10974250  0.53912559  0.26072262    -0.07830
C182        C  0.10981768  0.55764607  0.28767844    -0.09390
C183        C  0.29441579  0.62052407  0.09002222    -0.07830
C184        C  0.26125609  0.58727681  0.10450656    -0.09390
C185        C  0.21368595  0.45097304  0.25702509    -0.07830
C186        C  0.23238458  0.45111402  0.28417002    -0.09390
C187        C  0.62660114  0.60991821  0.13364871    -0.07830
C188        C  0.60601138  0.63055294  0.13360454    -0.09390
C189        C  0.98081573  0.60468075  0.41215828    -0.07830
C190        C  0.02318491  0.62388783  0.41231493    -0.09390
C191        C  0.76200196  0.55110292  0.25979613    -0.07830
C192        C  0.78073112  0.55123240  0.28692196    -0.09390
C193        C  0.66431240  0.38260099  0.09010569    -0.07830
C194        C  0.66651504  0.41585296  0.10461961    -0.09390
C195        C  0.73326545  0.41515832  0.43949154    -0.07830
C196        C  0.70008807  0.38194257  0.45398721    -0.09390
C197        C  0.65899736  0.33898928  0.00622364    -0.07830
C198        C  0.65930179  0.33928390  0.03796543    -0.09390
C199        C  0.88498686  0.46333026  0.28331966    -0.07830
C200        C  0.88491191  0.44482258  0.25635702    -0.09390
C201        C  0.01367584  0.39776896  0.13184121    -0.07830
C202        C  0.97130675  0.37857055  0.13168458    -0.09390
C203        C  0.70036148  0.33712413  0.08911973    -0.07830
C204        C  0.73264717  0.33668970  0.10292228    -0.09390
C205        C  0.62000238  0.02719756  0.41224399    -0.07830
C206        C  0.60082396  0.98482989  0.41203867    -0.09390
C207        C  0.66114371  0.29795177  0.45504351    -0.07830
C208        C  0.66160770  0.26569689  0.44120752    -0.09390
C209        C  0.75099422  0.22848115  0.28564503    -0.07830
C210        C  0.76990663  0.24737136  0.25833193    -0.09390
C211        C  0.56210602  0.45664429  0.25894533    -0.07830
C212        C  0.54186847  0.43641444  0.28529938    -0.09390
C213        C  0.36788513  0.39263000  0.41036161    -0.07830
C214        C  0.38849000  0.37201104  0.41040930    -0.09390
C215        C  0.58244958  0.33185546  0.43959190    -0.07830
C216        C  0.61569296  0.33403272  0.45409357    -0.09390
C217        C  0.53482451  0.11340485  0.26085169    -0.07830
C218        C  0.55339015  0.11351227  0.28778960    -0.09390
C219        C  0.39342685  0.01761985  0.13194069    -0.07830
C220        C  0.37423842  0.97525030  0.13173373    -0.09390
C221        C  0.61636620  0.29820907  0.09021236    -0.07830
C222        C  0.58312226  0.26506050  0.10470892    -0.09390
C223        C  0.44713406  0.23645368  0.28440429    -0.07830
C224        C  0.44697101  0.21771273  0.25727264    -0.09390
O225        O  0.55966982  0.20276581  0.64439043    -0.52380
C226        C  0.51756157  0.12382903  0.73028271     0.80250
O227        O  0.42740941  0.17079920  0.70564863    -0.53530
C228        C  0.54850652  0.22698379  0.62628725     0.80230
C229        C  0.42369040  0.06625925  0.64169002     0.82620
Cd230      Cd  0.48431955  0.15547994  0.67517940     1.37460
O231        O  0.54539542  0.15148297  0.70687787    -0.52370
O232        O  0.46717023  0.08330220  0.64614137    -0.51180
C233        C  0.45814533  0.19944871  0.72723428     0.82580
O234        O  0.40808028  0.09237350  0.64932936    -0.53550
O235        O  0.47427950  0.10846585  0.72690562    -0.52010
O236        O  0.50652024  0.21719133  0.62915129    -0.52000
O237        O  0.50005973  0.21052078  0.72231325    -0.51170
O238        O  0.54840826  0.40528353  0.83850693    -0.52380
C239        C  0.54780241  0.33288560  0.91787833     0.80250
O240        O  0.40685112  0.31530530  0.89348432    -0.53530
C241        C  0.52225164  0.40625517  0.81499784     0.80230
C242        C  0.45837889  0.26605519  0.81475995     0.82620
Cd243      Cd  0.48446537  0.33635516  0.86815047     1.37470
O244        O  0.55782824  0.37000593  0.90174289    -0.52370
O245        O  0.50035276  0.29905069  0.82004331    -0.51180
C246        C  0.42053375  0.35756209  0.90092262     0.82580
O247        O  0.42761130  0.26187939  0.83641503    -0.53550
O248        O  0.50710326  0.29688596  0.91277751    -0.52010
O249        O  0.47846978  0.37715642  0.81739791    -0.52000
O250        O  0.46366902  0.38807258  0.89651815    -0.51170
O251        O  0.62080150  0.19847765  0.90563926    -0.52380
C252        C  0.58280167  0.12476861  0.81778125     0.80250
O253        O  0.72674064  0.18263435  0.83792100    -0.53530
C254        C  0.65902225  0.22879100  0.92004764     0.80230
C255        C  0.63345683  0.07439253  0.90300591     0.82620
Cd256      Cd  0.65299350  0.16048788  0.87054456     1.37470
O257        O  0.58355685  0.15139524  0.84169705    -0.52370
O258        O  0.60244065  0.08465864  0.89942006    -0.51180
C259        C  0.72196975  0.20862867  0.81631036     0.82580
O260        O  0.67535017  0.10588455  0.89494788    -0.53550
O261        O  0.61182333  0.11173124  0.81988108    -0.52010
O262        O  0.69477115  0.22633332  0.91355457    -0.52000
O263        O  0.68892434  0.21544774  0.82194040    -0.51170
O264        O  0.84720580  0.41488370  0.70235972    -0.52380
C265        C  0.76960402  0.33932241  0.62403973     0.80250
O266        O  0.89265411  0.32314899  0.64901782    -0.53530
C267        C  0.87369619  0.41548580  0.72632135     0.80230
C268        C  0.78979221  0.27639758  0.72767189     0.82620
Cd269      Cd  0.83798930  0.34540478  0.67347224     1.37470
O270        O  0.79985708  0.37753859  0.63849091    -0.52370
O271        O  0.78296726  0.30943672  0.72202645    -0.51180
C272        C  0.92410611  0.36506042  0.64096116     0.82580
O273        O  0.81582503  0.27164198  0.70608646    -0.53550
O274        O  0.77216922  0.30361560  0.63045029    -0.52010
O275        O  0.88662261  0.38637492  0.72422357    -0.52000
O276        O  0.91379276  0.39604102  0.64457539    -0.51170
C277        C  0.65895534  0.33827976  0.96767507     0.02950
C278        C  0.66003426  0.33932559  0.57651356     0.02950
O279        O  0.79554259  0.43849756  0.89981171    -0.52380
C280        C  0.87455317  0.48057550  0.81389794     0.80250
O281        O  0.82760365  0.57075578  0.83856009    -0.53530
C282        C  0.77137121  0.44972759  0.91791050     0.80230
C283        C  0.93215920  0.57442998  0.90245729     0.82620
Cd284      Cd  0.84291287  0.51382983  0.86900683     1.37460
O285        O  0.84687849  0.45272990  0.83729019    -0.52370
O286        O  0.91506297  0.53092733  0.89806006    -0.51180
C287        C  0.79898174  0.54003523  0.81695280     0.82580
O288        O  0.90608131  0.59007289  0.89479770    -0.53550
O289        O  0.88993271  0.52386190  0.81729317    -0.52010
O290        O  0.78123416  0.49173912  0.91503878    -0.52000
O291        O  0.78792214  0.49811736  0.82184751    -0.51170
O292        O  0.62842319  0.44050693  0.64250535    -0.52380
C293        C  0.59225388  0.47622484  0.72923727     0.80250
O294        O  0.73658355  0.57071507  0.70783103    -0.53530
C295        C  0.66552062  0.45051583  0.62634314     0.80230
C296        C  0.64099961  0.57785923  0.64321832     0.82620
Cd297      Cd  0.66212523  0.51390662  0.67606442     1.37460
O298        O  0.59314939  0.45003738  0.70571325    -0.52370
O299        O  0.61045631  0.53474392  0.64768235    -0.51180
C300        C  0.73241222  0.53990695  0.72944215     0.82580
O301        O  0.68324610  0.59151352  0.65065577    -0.53550
O302        O  0.62141459  0.51999696  0.72684147    -0.52010
O303        O  0.70153105  0.49121554  0.63142232    -0.52000
O304        O  0.69942882  0.49793680  0.72411831    -0.51170
O305        O  0.19895078  0.56387385  0.64416777    -0.52380
C306        C  0.12012332  0.52185689  0.73013196     0.80250
O307        O  0.08843444  0.41234953  0.64910858    -0.53530
C308        C  0.22315279  0.55267787  0.62607431     0.80230
C309        C  0.19548538  0.46221268  0.72698672     0.82620
Cd310      Cd  0.15162043  0.48853840  0.67496849     1.37470
O311        O  0.14780044  0.54968763  0.70673510    -0.52370
O312        O  0.20665492  0.50416033  0.72206949    -0.51180
C313        C  0.06233810  0.42800086  0.64153793     0.82580
O314        O  0.16679043  0.43150690  0.70540413    -0.53550
O315        O  0.10467718  0.47855835  0.72672067    -0.52010
O316        O  0.21332089  0.51067575  0.62894030    -0.52000
O317        O  0.07942653  0.47148852  0.64601527    -0.51170
O318        O  0.40107820  0.55257808  0.83825859    -0.52380
C319        C  0.32882458  0.55190009  0.91768122     0.80250
O320        O  0.25790313  0.43158986  0.83612346    -0.53530
C321        C  0.40213559  0.52644272  0.81476915     0.80230
C322        C  0.35346801  0.42466980  0.90078096     0.82620
Cd323      Cd  0.33225588  0.48855740  0.86793630     1.37470
O324        O  0.36595569  0.56187687  0.90158663    -0.52370
O325        O  0.38400846  0.46776590  0.89622503    -0.51180
C326        C  0.26195104  0.46237554  0.81454489     0.82580
O327        O  0.31119646  0.41100981  0.89342965    -0.53550
O328        O  0.29278595  0.51124127  0.91252933    -0.52010
O329        O  0.37313660  0.48264048  0.81719559    -0.52000
O330        O  0.29479974  0.50439065  0.81991629    -0.51170
O331        O  0.44883747  0.85069159  0.83707310    -0.52380
C332        C  0.44592996  0.77543724  0.91770038     0.80250
O333        O  0.56712545  0.83188647  0.83830662    -0.53530
C334        C  0.47663229  0.87843333  0.81368994     0.80230
C335        C  0.57059175  0.93619034  0.90228278     0.82620
Cd336      Cd  0.51005083  0.84695374  0.86879147     1.37460
O337        O  0.43474611  0.79966087  0.89962667    -0.52370
O338        O  0.52711928  0.91913543  0.89777615    -0.51180
C339        C  0.53642544  0.80315676  0.81673831     0.82580
O340        O  0.58622961  0.91008606  0.89469377    -0.53550
O341        O  0.48791158  0.78522736  0.91479860    -0.52010
O342        O  0.51994551  0.89395392  0.81708591    -0.52000
O343        O  0.49446567  0.79192422  0.82168245    -0.51170
O344        O  0.43676479  0.63264519  0.64221066    -0.52380
C345        C  0.47221147  0.59648932  0.72902691     0.80250
O346        O  0.58767127  0.68731000  0.65043176    -0.53530
C347        C  0.44675556  0.66976912  0.62609775     0.80230
C348        C  0.53628287  0.73668274  0.72918702     0.82620
Cd349      Cd  0.51010285  0.66632927  0.67583034     1.37470
O350        O  0.44608981  0.59748675  0.70550058    -0.52370
O351        O  0.49428217  0.70377355  0.72386638    -0.51180
C352        C  0.57398458  0.64502610  0.64308747     0.82580
O353        O  0.56704981  0.74076280  0.70757352    -0.53550
O354        O  0.51600442  0.62553574  0.72662988    -0.52010
O355        O  0.48743686  0.70579021  0.63121260    -0.52000
O356        O  0.53086541  0.61452220  0.64757528    -0.51170
C357        C  0.33440782  0.66313808  0.96749991     0.02950
C358        C  0.33550729  0.66421959  0.57633207     0.02950
O359        O  0.14760879  0.58777230  0.84161983    -0.52380
C360        C  0.22488945  0.66323112  0.91998218     0.80250
O361        O  0.17843778  0.73077251  0.83786867    -0.53530
C362        C  0.12097710  0.58699181  0.81770212     0.80230
C363        C  0.07038390  0.63740243  0.90303268     0.82620
Cd364      Cd  0.15651489  0.65710564  0.87052458     1.37460
O365        O  0.19455720  0.62498069  0.90561563    -0.52370
O366        O  0.08067727  0.60641593  0.89935173    -0.51180
C367        C  0.20454013  0.72610869  0.81629486     0.82580
O368        O  0.10185706  0.67933198  0.89503964    -0.53550
O369        O  0.22240882  0.69896631  0.91347974    -0.52010
O370        O  0.10783780  0.61593171  0.81983425    -0.52220
O371        O  0.21152060  0.69317931  0.82197105    -0.51170
O372        O  0.37347091  0.80402431  0.63827185    -0.52380
C373        C  0.41134394  0.87750804  0.72620013     0.80250
O374        O  0.31887005  0.89651857  0.64893222    -0.53530
C375        C  0.33525213  0.77364585  0.62389715     0.80230
C376        C  0.27220054  0.79380075  0.72760642     0.82620
Cd377      Cd  0.34121019  0.84192137  0.67339435     1.37460
O378        O  0.41058794  0.85090711  0.70226302    -0.52370
O379        O  0.30518700  0.78690185  0.72194826    -0.51180
C380        C  0.36078497  0.92805142  0.64096243     0.82580
O381        O  0.26748755  0.81985870  0.70602251    -0.53550
O382        O  0.38235283  0.89058450  0.72410553    -0.52010
O383        O  0.29946661  0.77603395  0.63040809    -0.52000
O384        O  0.39181388  0.91781611  0.64462283    -0.51170
C385        C  0.24319214  0.77397614  0.75828140    -0.07830
C386        C  0.22433084  0.75510893  0.78561269    -0.09390
C387        C  0.33271468  0.73674449  0.60276069    -0.07830
C388        C  0.33323849  0.70450817  0.58894918    -0.09390
C389        C  0.26184015  0.66585960  0.94110245    -0.07830
C390        C  0.29410914  0.66539224  0.95490127    -0.09390
C391        C  0.33546285  0.66349698  0.53778600    -0.07830
C392        C  0.33515274  0.66319160  0.50604557    -0.09390
C393        C  0.37880884  0.66854919  0.58991063    -0.07830
C394        C  0.41208413  0.67077462  0.60439757    -0.09390
C395        C  0.44073134  0.88870515  0.75619990    -0.07830
C396        C  0.45930842  0.88880450  0.78312965    -0.09390
C397        C  0.41133790  0.73735942  0.93928825    -0.07830
C398        C  0.37809281  0.70422236  0.95379210    -0.09390
C399        C  0.54754999  0.76627999  0.75954651    -0.07830
C400        C  0.54768231  0.78498115  0.78669018    -0.09390
C401        C  0.43229068  0.54609519  0.78507163    -0.07830
C402        C  0.45254984  0.56634658  0.75872959    -0.09390
C403        C  0.32783304  0.58656262  0.93940563    -0.07830
C404        C  0.33006991  0.61983348  0.95391440    -0.09390
C405        C  0.10974249  0.53912557  0.76072263    -0.07830
C406        C  0.10981767  0.55764605  0.78767844    -0.09390
C407        C  0.29441578  0.62052406  0.59002222    -0.07830
C408        C  0.26125608  0.58727681  0.60450656    -0.09390
C409        C  0.21368595  0.45097303  0.75702509    -0.07830
C410        C  0.23238459  0.45111402  0.78417002    -0.09390
C411        C  0.62660113  0.60991820  0.63364870    -0.07830
C412        C  0.60601137  0.63055293  0.63360454    -0.09390
C413        C  0.98081573  0.60468075  0.91215828    -0.07830
C414        C  0.02318491  0.62388783  0.91231493    -0.09390
C415        C  0.76200195  0.55110292  0.75979613    -0.07830
C416        C  0.78073111  0.55123240  0.78692195    -0.09390
C417        C  0.66431239  0.38260098  0.59010569    -0.07830
C418        C  0.66651503  0.41585295  0.60461961    -0.09390
C419        C  0.73326545  0.41515832  0.93949153    -0.07830
C420        C  0.70008807  0.38194257  0.95398720    -0.09390
C421        C  0.65899735  0.33898927  0.50622364    -0.07830
C422        C  0.65930178  0.33928389  0.53796543    -0.09390
C423        C  0.88498685  0.46333027  0.78331965    -0.07830
C424        C  0.88491191  0.44482259  0.75635702    -0.09390
C425        C  0.01367583  0.39776895  0.63184121    -0.07830
C426        C  0.97130675  0.37857055  0.63168458    -0.09390
C427        C  0.70036147  0.33712412  0.58911973    -0.07830
C428        C  0.73264716  0.33668969  0.60292228    -0.09390
C429        C  0.62000237  0.02719756  0.91224398    -0.07830
C430        C  0.60082396  0.98482989  0.91203867    -0.09390
C431        C  0.66114371  0.29795177  0.95504351    -0.07830
C432        C  0.66160770  0.26569689  0.94120752    -0.09390
C433        C  0.75099422  0.22848115  0.78564503    -0.07830
C434        C  0.76990662  0.24737136  0.75833193    -0.09390
C435        C  0.56210601  0.45664428  0.75894533    -0.07830
C436        C  0.54186846  0.43641442  0.78529938    -0.09390
C437        C  0.36788513  0.39262999  0.91036162    -0.07830
C438        C  0.38848999  0.37201104  0.91040930    -0.09390
C439        C  0.58244958  0.33185546  0.93959191    -0.07830
C440        C  0.61569296  0.33403272  0.95409357    -0.09390
C441        C  0.53482449  0.11340485  0.76085169    -0.07830
C442        C  0.55339014  0.11351227  0.78778961    -0.09390
C443        C  0.39342683  0.01761984  0.63194069    -0.07830
C444        C  0.37423840  0.97525029  0.63173374    -0.09390
C445        C  0.61636619  0.29820906  0.59021236    -0.07830
C446        C  0.58312225  0.26506049  0.60470892    -0.09390
C447        C  0.44713404  0.23645367  0.78440430    -0.07830
C448        C  0.44697099  0.21771272  0.75727264    -0.09390
loop_ 
_geom_bond_atom_site_label_1 
_geom_bond_atom_site_label_2 
_geom_bond_distance 
_geom_bond_site_symmetry_2 
_ccdc_geom_bond_type 
O1            C4   1.262       .  A
O1           Cd6   2.450       .  S
C2           O11   1.261       .  A
C2            O7   1.266       .  A
C2          C217   1.423       .  S
O3            C9   1.269       .  A
O3           Cd6   2.505       .  S
C4           O12   1.268       .  A
C4          C222   1.440       .  S
C5           O10   1.268       .  A
C5            O8   1.262       .  A
C5          C219   1.438       .  S
Cd6          O13   2.422       .  S
Cd6          O12   2.502       .  S
Cd6          O11   2.430       .  S
Cd6           O7   2.439       .  S
Cd6          O10   2.497       .  S
Cd6           O8   2.434       .  S
C9           O13   1.261       .  A
C9          C224   1.437       .  S
O14          C17   1.265       .  A
O14         Cd19   2.437       .  S
C15          O24   1.267       .  A
C15          O20   1.261       .  A
C15         C215   1.440       .  S
O16          C22   1.267       .  A
O16         Cd19   2.497       .  S
C17          O25   1.262       .  A
C17         C212   1.423       .  S
C18          O23   1.268       .  A
C18          O21   1.261       .  A
C18         C223   1.437       .  S
Cd19         O26   2.435       .  S
Cd19         O25   2.435       .  S
Cd19         O24   2.504       .  S
Cd19         O20   2.451       .  S
Cd19         O23   2.505       .  S
Cd19         O21   2.430       .  S
C22          O26   1.262       .  A
C22         C214   1.437       .  S
O27          C30   1.262       .  A
O27         Cd32   2.453       .  S
C28          O37   1.261       .  A
C28          O33   1.265       .  A
C28         C218   1.423       .  S
O29          C35   1.268       .  A
O29         Cd32   2.499       .  S
C30          O38   1.267       .  A
C30         C208   1.439       .  S
C31          O36   1.267       .  A
C31          O34   1.263       .  A
C31         C205   1.438       .  S
Cd32         O39   2.430       .  S
Cd32         O38   2.497       .  S
Cd32         O37   2.430       .  S
Cd32         O33   2.441       .  S
Cd32         O36   2.493       .  S
Cd32         O34   2.441       .  S
C35          O39   1.261       .  A
C35         C209   1.436       .  S
O40          C43   1.265       .  A
O40         Cd45   2.441       .  S
C41          O50   1.267       .  A
C41          O46   1.262       .  A
C41         C204   1.439       .  S
O42          C48   1.267       .  A
O42         Cd45   2.493       .  S
C43          O51   1.261       .  A
C43         C200   1.423       .  S
C44          O49   1.268       .  A
C44          O47   1.261       .  A
C44         C210   1.436       .  S
Cd45         O52   2.441       .  S
Cd45         O51   2.430       .  S
Cd45         O50   2.497       .  S
Cd45         O46   2.453       .  S
Cd45         O49   2.499       .  S
Cd45         O47   2.429       .  S
C48          O52   1.263       .  A
C48         C202   1.438       .  S
C53         C196   1.473       .  S
C53         C207   1.471       .  S
C53         C216   1.473       .  S
C53         C421   1.468       .  S
C54         C193   1.473       .  S
C54         C198   1.468       .  S
C54         C203   1.472       .  S
C54         C221   1.473       .  S
O55          C58   1.262       .  A
O55         Cd60   2.451       .  S
C56          O65   1.261       .  A
C56          O61   1.266       .  A
C56         C199   1.423       .  S
O57          C63   1.269       .  A
O57         Cd60   2.505       .  S
C58          O66   1.268       .  A
C58         C195   1.440       .  S
C59          O64   1.268       .  A
C59          O62   1.262       .  A
C59         C189   1.438       .  S
Cd60         O67   2.422       .  S
Cd60         O66   2.502       .  S
Cd60         O65   2.429       .  S
Cd60         O61   2.439       .  S
Cd60         O64   2.497       .  S
Cd60         O62   2.434       .  S
C63          O67   1.261       .  A
C63         C192   1.437       .  S
O68          C71   1.261       .  A
O68         Cd73   2.451       .  S
C69          O78   1.262       .  A
C69          O74   1.265       .  A
C69         C211   1.423       .  S
O70          C76   1.268       .  A
O70         Cd73   2.505       .  S
C71          O79   1.267       .  A
C71         C194   1.440       .  S
C72          O77   1.267       .  A
C72          O75   1.262       .  A
C72         C187   1.437       .  S
Cd73         O80   2.430       .  S
Cd73         O79   2.504       .  S
Cd73         O78   2.435       .  S
Cd73         O74   2.437       .  S
Cd73         O77   2.497       .  S
Cd73         O75   2.435       .  S
C76          O80   1.261       .  A
C76         C191   1.437       .  S
O81          C84   1.262       .  A
O81         Cd86   2.450       .  S
C82          O91   1.261       .  A
C82          O87   1.266       .  A
C82         C181   1.423       .  S
O83          C89   1.268       .  A
O83         Cd86   2.497       .  S
C84          O92   1.268       .  A
C84         C184   1.440       .  S
C85          O90   1.269       .  A
C85          O88   1.261       .  A
C85         C185   1.437       .  S
Cd86         O93   2.434       .  S
Cd86         O92   2.502       .  S
Cd86         O91   2.430       .  S
Cd86         O87   2.439       .  S
Cd86         O90   2.505       .  S
Cd86         O88   2.422       .  S
C89          O93   1.262       .  A
C89         C201   1.438       .  S
O94          C97   1.265       .  A
O94         Cd99   2.437       .  S
C95         O104   1.267       .  A
C95         O100   1.261       .  A
C95         C179   1.440       .  S
O96         C102   1.268       .  A
O96         Cd99   2.505       .  S
C97         O105   1.262       .  A
C97         C177   1.423       .  S
C98         O103   1.267       .  A
C98         O101   1.262       .  A
C98         C213   1.437       .  S
Cd99        O106   2.430       .  S
Cd99        O105   2.435       .  S
Cd99        O104   2.504       .  S
Cd99        O100   2.451       .  S
Cd99        O103   2.497       .  S
Cd99        O101   2.435       .  S
C102        O106   1.261       .  A
C102        C186   1.437       .  S
O107        C110   1.266       .  A
O107       Cd112   2.439       .  S
C108        O117   1.268       .  A
C108        O113   1.262       .  A
C108        C173   1.440       .  S
O109        C115   1.269       .  A
O109       Cd112   2.505       .  S
C110        O118   1.261       .  A
C110        C172   1.423       .  S
C111        O116   1.268       .  A
C111        O114   1.262       .  A
C111        C206   1.438       .  S
Cd112       O119   2.422       .  S
Cd112       O118   2.430       .  S
Cd112       O117   2.502       .  S
Cd112       O113   2.450       .  S
Cd112       O116   2.497       .  S
Cd112       O114   2.434       .  S
C115        O119   1.261       .  A
C115        C176   1.437       .  S
O120        C123   1.261       .  A
O120       Cd125   2.451       .  S
C121        O130   1.262       .  A
C121        O126   1.265       .  A
C121        C178   1.423       .  S
O122        C128   1.267       .  A
O122       Cd125   2.497       .  S
C123        O131   1.267       .  A
C123        C170   1.440       .  S
C124        O129   1.268       .  A
C124        O127   1.261       .  A
C124        C175   1.437       .  S
Cd125       O132   2.435       .  S
Cd125       O131   2.504       .  S
Cd125       O130   2.435       .  S
Cd125       O126   2.437       .  S
Cd125       O129   2.505       .  S
Cd125       O127   2.429       .  S
C128        O132   1.262       .  A
C128        C188   1.437       .  S
C133        C166   1.471       .  S
C133        C174   1.473       .  S
C133        C180   1.472       .  S
C133        C392   1.468       .  S
C134        C164   1.471       .  S
C134        C167   1.468       .  S
C134        C169   1.473       .  S
C134        C183   1.473       .  S
O135        C138   1.265       .  A
O135       Cd140   2.441       .  S
C136        O145   1.267       .  A
C136        O141   1.262       .  A
C136        C165   1.439       .  S
O137        C143   1.268       .  A
O137       Cd140   2.499       .  S
C138        O146   1.261       .  A
C138        C182   1.423       .  S
C139        O144   1.267       .  A
C139        O142   1.263       .  A
C139        C190   1.438       .  S
Cd140       O147   2.429       .  S
Cd140       O146   2.430       .  S
Cd140       O145   2.497       .  S
Cd140       O141   2.453       .  S
Cd140       O144   2.493       .  S
Cd140       O142   2.441       .  S
C143        O147   1.261       .  A
C143        C162   1.436       .  S
O148        C151   1.262       .  A
O148       Cd153   2.453       .  S
C149        O158   1.261       .  A
C149        O154   1.265       .  A
C149        C171   1.423       .  S
O150        C156   1.267       .  A
O150       Cd153   2.494       .  S
C151        O159   1.267       .  A
C151        C163   1.439       .  S
C152        O157   1.268       .  A
C152        O155   1.261       .  A
C152        C161   1.436       .  S
Cd153       O160   2.441       .  S
Cd153       O159   2.497       .  S
Cd153       O158   2.430       .  S
Cd153       O154   2.441       .  S
Cd153       O157   2.499       .  S
Cd153       O155   2.430       .  S
C156        O160   1.263       .  A
C156        C220   1.438       .  S
C161        C162   1.207       .  T
C163        C164   1.209       .  T
C165        C166   1.209       .  T
C167        C168   1.208       .  T
C168        C357   1.468   1_554  S
C169        C170   1.210       .  T
C171        C172   1.199       .  T
C173        C174   1.210       .  T
C175        C176   1.207       .  T
C177        C178   1.198       .  T
C179        C180   1.210       .  T
C181        C182   1.199       .  T
C183        C184   1.210       .  T
C185        C186   1.207       .  T
C187        C188   1.207       .  T
C189        C190   1.208   1_655  T
C191        C192   1.207       .  T
C193        C194   1.210       .  T
C195        C196   1.210       .  T
C197        C277   1.468   1_554  S
C197        C198   1.208       .  T
C199        C200   1.199       .  T
C201        C202   1.208   1_455  T
C203        C204   1.209       .  T
C205        C206   1.208   1_545  T
C207        C208   1.209       .  T
C209        C210   1.207       .  T
C211        C212   1.198       .  T
C213        C214   1.207       .  T
C215        C216   1.210       .  T
C217        C218   1.199       .  T
C219        C220   1.208   1_545  T
C221        C222   1.210       .  T
C223        C224   1.207       .  T
O225        C228   1.262       .  A
O225       Cd230   2.450       .  S
C226        O235   1.261       .  A
C226        O231   1.266       .  A
C226        C441   1.423       .  S
O227        C233   1.269       .  A
O227       Cd230   2.505       .  S
C228        O236   1.268       .  A
C228        C446   1.440       .  S
C229        O234   1.268       .  A
C229        O232   1.262       .  A
C229        C443   1.438       .  S
Cd230       O237   2.422       .  S
Cd230       O236   2.502       .  S
Cd230       O235   2.430       .  S
Cd230       O231   2.439       .  S
Cd230       O234   2.497       .  S
Cd230       O232   2.434       .  S
C233        O237   1.261       .  A
C233        C448   1.437       .  S
O238        C241   1.265       .  A
O238       Cd243   2.437       .  S
C239        O248   1.267       .  A
C239        O244   1.261       .  A
C239        C439   1.440       .  S
O240        C246   1.267       .  A
O240       Cd243   2.497       .  S
C241        O249   1.262       .  A
C241        C436   1.423       .  S
C242        O247   1.268       .  A
C242        O245   1.261       .  A
C242        C447   1.437       .  S
Cd243       O250   2.435       .  S
Cd243       O249   2.435       .  S
Cd243       O248   2.504       .  S
Cd243       O244   2.451       .  S
Cd243       O247   2.505       .  S
Cd243       O245   2.430       .  S
C246        O250   1.262       .  A
C246        C438   1.437       .  S
O251        C254   1.262       .  A
O251       Cd256   2.453       .  S
C252        O261   1.261       .  A
C252        O257   1.265       .  A
C252        C442   1.423       .  S
O253        C259   1.268       .  A
O253       Cd256   2.499       .  S
C254        O262   1.267       .  A
C254        C432   1.439       .  S
C255        O260   1.267       .  A
C255        O258   1.263       .  A
C255        C429   1.438       .  S
Cd256       O263   2.430       .  S
Cd256       O262   2.497       .  S
Cd256       O261   2.430       .  S
Cd256       O257   2.441       .  S
Cd256       O260   2.493       .  S
Cd256       O258   2.441       .  S
C259        O263   1.261       .  A
C259        C433   1.436       .  S
O264        C267   1.265       .  A
O264       Cd269   2.441       .  S
C265        O274   1.267       .  A
C265        O270   1.262       .  A
C265        C428   1.439       .  S
O266        C272   1.267       .  A
O266       Cd269   2.493       .  S
C267        O275   1.261       .  A
C267        C424   1.423       .  S
C268        O273   1.268       .  A
C268        O271   1.261       .  A
C268        C434   1.436       .  S
Cd269       O276   2.441       .  S
Cd269       O275   2.430       .  S
Cd269       O274   2.497       .  S
Cd269       O270   2.453       .  S
Cd269       O273   2.499       .  S
Cd269       O271   2.429       .  S
C272        O276   1.263       .  A
C272        C426   1.438       .  S
C277        C420   1.473       .  S
C277        C431   1.471       .  S
C277        C440   1.473       .  S
C278        C417   1.473       .  S
C278        C422   1.468       .  S
C278        C427   1.472       .  S
C278        C445   1.473       .  S
O279        C282   1.262       .  A
O279       Cd284   2.451       .  S
C280        O289   1.261       .  A
C280        O285   1.266       .  A
C280        C423   1.423       .  S
O281        C287   1.269       .  A
O281       Cd284   2.505       .  S
C282        O290   1.268       .  A
C282        C419   1.440       .  S
C283        O288   1.268       .  A
C283        O286   1.262       .  A
C283        C413   1.438       .  S
Cd284       O291   2.422       .  S
Cd284       O290   2.502       .  S
Cd284       O289   2.429       .  S
Cd284       O285   2.439       .  S
Cd284       O288   2.497       .  S
Cd284       O286   2.434       .  S
C287        O291   1.261       .  A
C287        C416   1.437       .  S
O292        C295   1.261       .  A
O292       Cd297   2.451       .  S
C293        O302   1.262       .  A
C293        O298   1.265       .  A
C293        C435   1.423       .  S
O294        C300   1.268       .  A
O294       Cd297   2.505       .  S
C295        O303   1.267       .  A
C295        C418   1.440       .  S
C296        O301   1.267       .  A
C296        O299   1.262       .  A
C296        C411   1.437       .  S
Cd297       O304   2.430       .  S
Cd297       O303   2.504       .  S
Cd297       O302   2.435       .  S
Cd297       O298   2.437       .  S
Cd297       O301   2.497       .  S
Cd297       O299   2.435       .  S
C300        O304   1.261       .  A
C300        C415   1.437       .  S
O305        C308   1.262       .  A
O305       Cd310   2.450       .  S
C306        O315   1.261       .  A
C306        O311   1.266       .  A
C306        C405   1.423       .  S
O307        C313   1.268       .  A
O307       Cd310   2.497       .  S
C308        O316   1.268       .  A
C308        C408   1.440       .  S
C309        O314   1.269       .  A
C309        O312   1.261       .  A
C309        C409   1.437       .  S
Cd310       O317   2.434       .  S
Cd310       O316   2.502       .  S
Cd310       O315   2.430       .  S
Cd310       O311   2.439       .  S
Cd310       O314   2.505       .  S
Cd310       O312   2.422       .  S
C313        O317   1.262       .  A
C313        C425   1.438       .  S
O318        C321   1.265       .  A
O318       Cd323   2.437       .  S
C319        O328   1.267       .  A
C319        O324   1.261       .  A
C319        C403   1.440       .  S
O320        C326   1.268       .  A
O320       Cd323   2.505       .  S
C321        O329   1.262       .  A
C321        C401   1.423       .  S
C322        O327   1.267       .  A
C322        O325   1.262       .  A
C322        C437   1.437       .  S
Cd323       O330   2.430       .  S
Cd323       O329   2.435       .  S
Cd323       O328   2.504       .  S
Cd323       O324   2.451       .  S
Cd323       O327   2.497       .  S
Cd323       O325   2.435       .  S
C326        O330   1.261       .  A
C326        C410   1.437       .  S
O331        C334   1.266       .  A
O331       Cd336   2.439       .  S
C332        O341   1.268       .  A
C332        O337   1.262       .  A
C332        C397   1.440       .  S
O333        C339   1.269       .  A
O333       Cd336   2.505       .  S
C334        O342   1.261       .  A
C334        C396   1.423       .  S
C335        O340   1.268       .  A
C335        O338   1.262       .  A
C335        C430   1.438       .  S
Cd336       O343   2.422       .  S
Cd336       O342   2.430       .  S
Cd336       O341   2.502       .  S
Cd336       O337   2.450       .  S
Cd336       O340   2.497       .  S
Cd336       O338   2.434       .  S
C339        O343   1.261       .  A
C339        C400   1.437       .  S
O344        C347   1.261       .  A
O344       Cd349   2.451       .  S
C345        O354   1.262       .  A
C345        O350   1.265       .  A
C345        C402   1.423       .  S
O346        C352   1.267       .  A
O346       Cd349   2.497       .  S
C347        O355   1.267       .  A
C347        C394   1.440       .  S
C348        O353   1.268       .  A
C348        O351   1.261       .  A
C348        C399   1.437       .  S
Cd349       O356   2.435       .  S
Cd349       O355   2.504       .  S
Cd349       O354   2.435       .  S
Cd349       O350   2.437       .  S
Cd349       O353   2.505       .  S
Cd349       O351   2.429       .  S
C352        O356   1.262       .  A
C352        C412   1.437       .  S
C357        C390   1.471       .  S
C357        C398   1.473       .  S
C357        C404   1.472       .  S
C358        C388   1.471       .  S
C358        C391   1.468       .  S
C358        C393   1.473       .  S
C358        C407   1.473       .  S
O359        C362   1.265       .  A
O359       Cd364   2.441       .  S
C360        O369   1.267       .  A
C360        O365   1.262       .  A
C360        C389   1.439       .  S
O361        C367   1.268       .  A
O361       Cd364   2.499       .  S
C362        O370   1.261       .  A
C362        C406   1.423       .  S
C363        O368   1.267       .  A
C363        O366   1.263       .  A
C363        C414   1.438       .  S
Cd364       O371   2.429       .  S
Cd364       O370   2.430       .  S
Cd364       O369   2.497       .  S
Cd364       O365   2.453       .  S
Cd364       O368   2.493       .  S
Cd364       O366   2.441       .  S
C367        O371   1.261       .  A
C367        C386   1.436       .  S
O372        C375   1.262       .  A
O372       Cd377   2.453       .  S
C373        O382   1.261       .  A
C373        O378   1.265       .  A
C373        C395   1.423       .  S
O374        C380   1.267       .  A
O374       Cd377   2.494       .  S
C375        O383   1.267       .  A
C375        C387   1.439       .  S
C376        O381   1.268       .  A
C376        O379   1.261       .  A
C376        C385   1.436       .  S
Cd377       O384   2.441       .  S
Cd377       O383   2.497       .  S
Cd377       O382   2.430       .  S
Cd377       O378   2.441       .  S
Cd377       O381   2.499       .  S
Cd377       O379   2.430       .  S
C380        O384   1.263       .  A
C380        C444   1.438       .  S
C385        C386   1.207       .  T
C387        C388   1.209       .  T
C389        C390   1.209       .  T
C391        C392   1.208       .  T
C393        C394   1.210       .  T
C395        C396   1.199       .  T
C397        C398   1.210       .  T
C399        C400   1.207       .  T
C401        C402   1.198       .  T
C403        C404   1.210       .  T
C405        C406   1.199       .  T
C407        C408   1.210       .  T
C409        C410   1.207       .  T
C411        C412   1.207       .  T
C413        C414   1.208   1_655  T
C415        C416   1.207       .  T
C417        C418   1.210       .  T
C419        C420   1.210       .  T
C421        C422   1.208       .  T
C423        C424   1.199       .  T
C425        C426   1.208   1_455  T
C427        C428   1.209       .  T
C429        C430   1.208   1_545  T
C431        C432   1.209       .  T
C433        C434   1.207       .  T
C435        C436   1.198       .  T
C437        C438   1.207       .  T
C439        C440   1.210       .  T
C441        C442   1.199       .  T
C443        C444   1.208   1_545  T
C445        C446   1.210       .  T
C447        C448   1.207       .  T
