geometry optimzed in LAMMPS
_audit_creation_date              2020-11-30 
_audit_creation_method            'lammps2cif' 
_symmetry_space_group_name_H-M    'P1' 
_symmetry_Int_Tables_number       1 
_symmetry_cell_setting            triclinic 
loop_ 
_symmetry_equiv_pos_as_xyz 
  x,y,z 
_cell_length_a                    43.31673415 
_cell_length_b                    43.281045245609526 
_cell_length_c                    42.18386838900046 
_cell_angle_alpha                 89.96377989524996 
_cell_angle_beta                  90.10879818213853 
_cell_angle_gamma                 120.3703152045523 
loop_ 
_atom_site_label 
_atom_site_type_symbol 
_atom_site_fract_x 
_atom_site_fract_y 
_atom_site_fract_z 
_atom_site_charge 
O1          O  0.21798840  0.39952043  0.40052648    -0.84700
O2          O  0.21673995  0.33708390  0.41536632    -0.81800
C3          C  0.20507232  0.30397132  0.41787885     0.98700
O4          O  0.18053465  0.28207221  0.39963149    -0.81800
O5          O  0.11938002  0.28316140  0.41564986    -0.84400
C6          C  0.09781742  0.29449165  0.41832686     1.03300
O7          O  0.10023071  0.31867188  0.39985739    -0.77200
O8          O  0.16307711  0.37957297  0.41648215    -0.77400
C9          C  0.19617994  0.40107426  0.41948413     1.03200
O10         O  0.21493788  0.38223465  0.33456789    -0.84700
O11         O  0.21986523  0.32299951  0.34948188    -0.81800
C12         C  0.19855115  0.29841580  0.33099817     0.98800
O13         O  0.16525418  0.28517463  0.33411241    -0.81800
O14         O  0.10133027  0.28026828  0.34981156    -0.84400
C15         C  0.09837953  0.30173797  0.33141410     1.03200
O16         O  0.11896947  0.33503658  0.33448003    -0.77200
O17         O  0.17800025  0.39921106  0.35101363    -0.77400
C18         C  0.20189886  0.40235611  0.33189596     1.03200
Cr19       Cr  0.21369761  0.35854011  0.37499603     1.93700
Cr20       Cr  0.14342939  0.28636609  0.37485460     1.93200
Cr21       Cr  0.14197168  0.35636377  0.37546531     1.39100
O22         O  0.16638462  0.33372683  0.37515643    -1.22500
O23         O  0.27905666  0.10227886  0.14951726    -0.84700
O24         O  0.28297989  0.16580596  0.16487017    -0.81800
C25         C  0.29583270  0.19904709  0.16799406     0.98700
O26         O  0.32024064  0.22068376  0.14951829    -0.81800
O27         O  0.37944566  0.21696222  0.16647842    -0.84400
C28         C  0.40023650  0.20480198  0.16958998     1.03300
O29         O  0.39777834  0.18063081  0.15112593    -0.77200
O30         O  0.33327136  0.12084383  0.16695209    -0.77400
C31         C  0.29991463  0.09994611  0.16911665     1.03200
O32         O  0.28404786  0.12084020  0.08376145    -0.84700
O33         O  0.28121064  0.18121788  0.09895597    -0.81800
C34         C  0.30332337  0.20542197  0.08057335     0.98800
O35         O  0.33634494  0.21751299  0.08411961    -0.81800
O36         O  0.39881742  0.21995103  0.10071836    -0.84400
C37         C  0.40097212  0.19813507  0.08216653     1.03200
O38         O  0.37997343  0.16491323  0.08553774    -0.77200
O39         O  0.31906080  0.10179146  0.10121892    -0.77400
C40         C  0.29562256  0.09939634  0.08183210     1.03200
Cr41       Cr  0.28544512  0.14436044  0.12431166     1.93700
Cr42       Cr  0.35688621  0.21514204  0.12522951     1.93200
Cr43       Cr  0.35577089  0.14385536  0.12617664     1.39100
O44         O  0.33270964  0.16781428  0.12518027    -1.22500
C45         C  0.47603088  0.25915115  0.02540587    -0.13700
C46         C  0.47989040  0.23411704  0.00741167     0.16700
C47         C  0.45797236  0.19740708  0.01412013     0.03000
C48         C  0.43286410  0.18642404  0.03869176    -0.12200
C49         C  0.42882626  0.21141019  0.05692298    -0.03300
C50         C  0.45108984  0.24837680  0.05006170     0.02200
C51         C  0.00856968  0.24719385  0.48317286     0.09000
N52         N  0.46020137  0.17099220  0.49551486     0.65400
H53         H  0.41607882  0.15794267  0.04321895     0.18300
N54         N  0.44934083  0.27548204  0.06803828     0.75900
H55         H  0.49334275  0.28757106  0.02080980     0.09800
C56         C  0.01019659  0.26988965  0.45850455     0.03500
C57         C  0.03978407  0.28540302  0.43828334    -0.05200
C58         C  0.06802142  0.27841830  0.44164884    -0.23600
C59         C  0.06611106  0.25523175  0.46622456     0.12800
C60         C  0.03645944  0.23983162  0.48658792    -0.12700
N61         N  0.48153849  0.27673318  0.45330461     0.64400
H62         H  0.04014047  0.30248527  0.41926191     0.12300
N63         N  0.09456680  0.24817267  0.47167178     0.61100
H64         H  0.03584551  0.22302030  0.00599088     0.08400
O65         O  0.44158455  0.29657378  0.05426345    -0.40400
O66         O  0.46288342  0.28317682  0.09545798    -0.39600
O67         O  0.46729796  0.14907775  0.00868386    -0.39600
O68         O  0.45173119  0.16732700  0.46654727    -0.37300
O69         O  0.12339689  0.27189993  0.48415776    -0.38200
O70         O  0.08927160  0.21694118  0.46784363    -0.34300
O71         O  0.48763575  0.30849761  0.45298693    -0.35700
O72         O  0.45088835  0.25135710  0.44582815    -0.40000
C73         C  0.01321911  0.24088608  0.28518319    -0.13700
C74         C  0.01522348  0.26375268  0.26083965     0.16700
C75         C  0.04477812  0.29872277  0.25918940     0.03000
C76         C  0.07184535  0.31044162  0.28208117    -0.12200
C77         C  0.06976032  0.28784793  0.30700760    -0.03300
C78         C  0.03995186  0.25256916  0.30833499     0.02200
C79         C  0.48647283  0.25016478  0.23694880     0.09000
N80         N  0.04724142  0.32272597  0.23472185     0.65400
H81         H  0.09442571  0.33754438  0.28049253     0.18300
N82         N  0.03568795  0.22864013  0.33355274     0.75300
H83         H  0.99043582  0.21385126  0.28641867     0.09800
C84         C  0.48978985  0.23559443  0.20828683     0.03500
C85         C  0.46130273  0.22079718  0.18681119    -0.05200
C86         C  0.42924357  0.22024208  0.19342989    -0.23600
C87         C  0.42614454  0.23529075  0.22212158     0.12800
C88         C  0.45479055  0.25014152  0.24359582    -0.12700
N89         N  0.02177206  0.23517242  0.20098329     0.64400
H90         H  0.46436774  0.20976710  0.16474160     0.12300
N91         N  0.39359065  0.23411514  0.23045567     0.61100
H92         H  0.45205561  0.26102814  0.26588276     0.08400
O93         O  0.03893763  0.20175755  0.32810598    -0.40400
O94         O  0.02412069  0.23170970  0.36010520    -0.39600
O95         O  0.02832320  0.33725467  0.23620913    -0.39600
O96         O  0.57141059  0.33295054  0.21402072    -0.37300
O97         O  0.36724136  0.20519192  0.24012167    -0.38200
O98         O  0.39263929  0.26273633  0.23200992    -0.34300
O99         O  0.02563223  0.20979512  0.21083307    -0.35700
O100        O  0.04359648  0.25709868  0.18111034    -0.40000
C101        C  0.23707696  0.01612339  0.21610800    -0.13700
C102        C  0.25853751  0.01935273  0.24214654     0.16700
C103        C  0.29327306  0.04914209  0.24447213     0.03000
C104        C  0.30633223  0.07508666  0.22051138    -0.12200
C105        C  0.28509702  0.07190896  0.19405516    -0.03300
C106        C  0.24996077  0.04190492  0.19205343     0.02200
C107        C  0.24484789  0.49011784  0.26560690     0.09000
N108        N  0.31545452  0.05330170  0.27111623     0.65400
H109        H  0.33318026  0.09796114  0.22277103     0.18300
N110        N  0.22749902  0.03635233  0.16522520     0.75900
H111        H  0.21053564  0.49259261  0.21376241     0.09800
C112        C  0.22218282  0.48815503  0.29022859     0.03500
C113        C  0.20791148  0.45898121  0.31099939    -0.05200
C114        C  0.21576937  0.43127852  0.30768413    -0.23600
C115        C  0.23803378  0.43301639  0.28230371     0.12800
C116        C  0.25264866  0.46265513  0.26187401    -0.12700
N117        N  0.21370209  0.51579552  0.29448856     0.64400
H118        H  0.19104877  0.45844372  0.33022988     0.12300
N119        N  0.24507273  0.40457364  0.27614617     0.61100
H120        H  0.26938555  0.46377551  0.24227139     0.08400
O121        O  0.20165114  0.54147387  0.16728658    -0.40400
O122        O  0.23069947  0.02166358  0.14061064    -0.39600
O123        O  0.34023665  0.04622915  0.26846859    -0.39600
O124        O  0.31268591  0.06749664  0.29625019    -0.37300
O125        O  0.21939724  0.37325768  0.27112063    -0.38200
O126        O  0.27660050  0.41175918  0.27035091    -0.34300
O127        O  0.18280905  0.50994546  0.28774715    -0.35700
O128        O  0.23548922  0.04466807  0.30745062    -0.40000
C129        C  0.27418090  0.01595141  0.03435373    -0.13700
C130        C  0.25314567  0.01744845  0.00988928     0.16700
C131        C  0.24594343  0.04565687  0.00902333     0.03000
C132        C  0.25968797  0.07187435  0.03276951    -0.12200
C133        C  0.28095231  0.07065021  0.05746795    -0.03300
C134        C  0.28793387  0.04198277  0.05817013     0.02200
C135        C  0.23822486  0.48864962  0.48594541     0.09000
N136        N  0.22592178  0.54864797  0.98345962     0.65400
H137        H  0.25417008  0.09367052  0.03149182     0.18300
N138        N  0.30801360  0.03820447  0.08328148     0.75900
H139        H  0.27918279  0.99376782  0.53542612     0.09800
C140        C  0.26064513  0.48552588  0.46379389     0.03500
C141        C  0.24654254  0.45634959  0.44308799    -0.05200
C142        C  0.21002982  0.42986966  0.44381835    -0.23600
C143        C  0.18764643  0.43286634  0.46656517     0.12800
C144        C  0.20189100  0.46239356  0.48710757    -0.12700
N145        N  0.29768331  0.01225666  0.46176761     0.64400
H146        H  0.26434848  0.45495705  0.42583751     0.12300
N147        N  0.15082719  0.40578539  0.46983320     0.61100
H148        H  0.18473607  0.46436705  0.00470659     0.08400
O149        O  0.33831780  0.04243529  0.57811931    -0.40400
O150        O  0.29308941  0.02509154  0.10947944    -0.39600
O151        O  0.19570518  0.54526448  0.98875480    -0.39600
O152        O  0.23952660  0.55752167  0.95617605    -0.37300
O153        O  0.14268422  0.37589335  0.48184706    -0.38200
O154        O  0.12667187  0.41341036  0.96453123    -0.34300
O155        O  0.32137279  0.00431576  0.46783285    -0.35700
O156        O  0.30675347  0.04310935  0.45155347    -0.40000
C157        C  0.29869991  0.26473912  0.01581219    -0.13700
C158        C  0.26175159  0.25111734  0.01415725     0.16700
C159        C  0.23868070  0.22210996  0.03348232     0.03000
C160        C  0.25277981  0.20707090  0.05409031    -0.12200
C161        C  0.28990264  0.22060965  0.05616103    -0.03300
C162        C  0.31302159  0.24964300  0.03629989     0.02200
C163        C  0.24729545  0.26504480  0.48992936     0.09000
N164        N  0.20090141  0.20829491  0.03291040     0.65400
H165        H  0.23438151  0.18504555  0.06909384     0.18300
N166        N  0.35087095  0.26376720  0.03609993     0.75900
H167        H  0.31649823  0.28666572  0.50037664     0.09800
C168        C  0.25302605  0.30000732  0.49164369     0.03500
C169        C  0.23965080  0.31250049  0.46771438    -0.05200
C170        C  0.22055154  0.29057771  0.44185524    -0.23600
C171        C  0.21585021  0.25577278  0.43982085     0.12800
C172        C  0.22873727  0.24325803  0.46406587    -0.12700
N173        N  0.27139593  0.32259570  0.51806252     0.64400
H174        H  0.24356607  0.33924937  0.46979135     0.12300
N175        N  0.19965634  0.23345788  0.41266815     0.61100
H176        H  0.22505510  0.21655980  0.96234266     0.08400
O177        O  0.37178030  0.29661777  0.54210215    -0.40400
O178        O  0.36328057  0.24532087  0.02468324    -0.39600
O179        O  0.17982737  0.17614065  0.02514383    -0.39600
O180        O  0.18843165  0.22746230  0.04234904    -0.37300
O181        O  0.21529294  0.24241407  0.38618501    -0.38200
O182        O  0.17239268  0.20276397  0.41595756    -0.34300
O183        O  0.30165562  0.35027367  0.51423512    -0.35700
O184        O  0.25631987  0.31659076  0.04465454    -0.40000
C185        C  0.24501540  0.20617373  0.23860237    -0.13700
C186        C  0.25014985  0.24059252  0.23414148     0.16700
C187        C  0.27090814  0.26140043  0.20836966     0.03000
C188        C  0.28634754  0.24769436  0.18781211    -0.12200
C189        C  0.28103609  0.21310325  0.19195850    -0.03300
C190        C  0.26029846  0.19230685  0.21792162     0.02200
C191        C  0.23643767  0.25569351  0.25811072     0.09000
N192        N  0.27560340  0.29607073  0.20228484     0.65400
H193        H  0.30169956  0.26394333  0.16778796     0.18300
N194        N  0.25572547  0.15777557  0.22438261     0.75900
H195        H  0.22995687  0.19037481  0.25894105     0.09800
C196        C  0.19989515  0.23854944  0.26599765     0.03500
C197        C  0.18830287  0.25284646  0.28979705    -0.05200
C198        C  0.21254404  0.28411537  0.30632806    -0.23600
C199        C  0.24945039  0.30087874  0.29868490     0.12800
C200        C  0.26077495  0.28671947  0.27454430    -0.12700
N201        N  0.17419357  0.20698949  0.24958905     0.64400
H202        H  0.15993793  0.23931316  0.29522699     0.12300
N203        N  0.27598614  0.33174707  0.31542970     0.61100
H204        H  0.28913929  0.29953503  0.26918406     0.08400
O205        O  0.22486817  0.13033778  0.22370172    -0.40400
O206        O  0.28188259  0.15515545  0.23410812    -0.39600
O207        O  0.30666570  0.32290476  0.19954010    -0.39600
O208        O  0.24874795  0.29937225  0.19686348    -0.37300
O209        O  0.28448286  0.32821450  0.34327469    -0.38200
O210        O  0.29627543  0.36003818  0.30028620    -0.34300
O211        O  0.15600351  0.17803002  0.26455537    -0.35700
O212        O  0.16756973  0.20871661  0.22070953    -0.40000
O213        O  0.21799765  0.39951309  0.90052401    -0.84700
O214        O  0.21673587  0.33707066  0.91536374    -0.81800
C215        C  0.20506182  0.30395725  0.91788019     0.98700
O216        O  0.18052646  0.28206096  0.89962957    -0.81800
O217        O  0.11937980  0.28316238  0.91564871    -0.84400
C218        C  0.09782027  0.29449609  0.91832732     1.03300
O219        O  0.10023493  0.31867710  0.89985758    -0.77200
O220        O  0.16308756  0.37957393  0.91647810    -0.77400
C221        C  0.19619111  0.40107094  0.91948137     1.03200
O222        O  0.21494587  0.38222695  0.83456542    -0.84700
O223        O  0.21985845  0.32298323  0.84947811    -0.81800
C224        C  0.19854132  0.29840215  0.83099359     0.98800
O225        O  0.16524504  0.28516463  0.83410951    -0.81800
O226        O  0.10132588  0.28026830  0.84981166    -0.84400
C227        C  0.09837426  0.30173819  0.83141506     1.03200
O228        O  0.11896902  0.33503694  0.83447764    -0.77200
O229        O  0.17801294  0.39921215  0.85101026    -0.77400
C230        C  0.20191525  0.40235615  0.83189732     1.03200
Cr231      Cr  0.21369892  0.35852901  0.87499297     1.93700
Cr232      Cr  0.14342456  0.28636134  0.87485262     1.93200
Cr233      Cr  0.14197808  0.35636535  0.87546219     1.39100
O234        O  0.16638549  0.33372236  0.87515271    -1.22500
O235        O  0.27905214  0.10227829  0.64950628    -0.84700
O236        O  0.28297232  0.16580413  0.66485668    -0.81800
C237        C  0.29582203  0.19904489  0.66797958     0.98700
O238        O  0.32023174  0.22068251  0.64950570    -0.81800
O239        O  0.37943311  0.21695608  0.66647710    -0.84400
C240        C  0.40022536  0.20479743  0.66958951     1.03300
O241        O  0.39777145  0.18062919  0.65112307    -0.77200
O242        O  0.33326602  0.12083293  0.66693448    -0.77400
C243        C  0.29990921  0.09993628  0.66910064     1.03200
O244        O  0.28404489  0.12083836  0.58374833    -0.84700
O245        O  0.28121250  0.18121881  0.59894072    -0.81800
C246        C  0.30332892  0.20542284  0.58055991     0.98800
O247        O  0.33634989  0.21751278  0.58410995    -0.81800
O248        O  0.39882021  0.21995267  0.60072096    -0.84400
C249        C  0.40097282  0.19813872  0.58216492     1.03200
O250        O  0.37997068  0.16491748  0.58553039    -0.77200
O251        O  0.31906209  0.10179291  0.60120451    -0.77400
C252        C  0.29561846  0.09939360  0.58182214     1.03200
Cr253      Cr  0.28544163  0.14435950  0.62429883     1.93700
Cr254      Cr  0.35688263  0.21514062  0.62522416     1.93200
Cr255      Cr  0.35576803  0.14385450  0.62616598     1.39100
O256        O  0.33270575  0.16781251  0.62517175    -1.22500
C257        C  0.47605031  0.25915785  0.52542426    -0.13700
C258        C  0.47989564  0.23412325  0.50741684     0.16700
C259        C  0.45796086  0.19741154  0.51410912     0.03000
C260        C  0.43285150  0.18642717  0.53867942    -0.12200
C261        C  0.42882760  0.21141376  0.55692322    -0.03300
C262        C  0.45110575  0.24838118  0.55007677     0.02200
C263        C  0.00857423  0.24719363  0.98317680     0.09000
N264        N  0.46022959  0.17098720  0.99554170     0.65400
H265        H  0.41605348  0.15794473  0.54319471     0.18300
N266        N  0.44936620  0.27548388  0.56806521     0.75900
H267        H  0.49337370  0.28757864  0.52083975     0.09800
C268        C  0.01019584  0.26988388  0.95850501     0.03500
C269        C  0.03978340  0.28540026  0.93828335    -0.05200
C270        C  0.06802595  0.27842394  0.94165147    -0.23600
C271        C  0.06612179  0.25524407  0.96623114     0.12800
C272        C  0.03647027  0.23984100  0.98659485    -0.12700
N273        N  0.48150679  0.27668566  0.95327443     0.64400
H274        H  0.04013547  0.30247713  0.91925888     0.12300
N275        N  0.09458399  0.24819539  0.97168228     0.61100
H276        H  0.03582957  0.22300532  0.50598112     0.08400
O277        O  0.44157433  0.29655915  0.55430922    -0.40400
O278        O  0.46293636  0.28318657  0.59547440    -0.39600
O279        O  0.46724464  0.14905836  0.50864367    -0.39600
O280        O  0.45175234  0.16729739  0.96657528    -0.37300
O281        O  0.12341648  0.27193455  0.98415565    -0.38200
O282        O  0.08929436  0.21696404  0.96786895    -0.34300
O283        O  0.48758496  0.30844324  0.95293791    -0.35700
O284        O  0.45086277  0.25129293  0.94580578    -0.40000
C285        C  0.01320044  0.24088354  0.78519927    -0.13700
C286        C  0.01520649  0.26374281  0.76084812     0.16700
C287        C  0.04476458  0.29871061  0.75919035     0.03000
C288        C  0.07183422  0.31043363  0.78208072    -0.12200
C289        C  0.06974870  0.28784667  0.80701338    -0.03300
C290        C  0.03993519  0.25257098  0.80835000     0.02200
C291        C  0.48645377  0.25015735  0.73695933     0.09000
N292        N  0.04722957  0.32270722  0.73471574     0.65400
H293        H  0.09441787  0.33753391  0.78048523     0.18300
N294        N  0.03566824  0.22864976  0.83357600     0.75300
H295        H  0.99041424  0.21385087  0.78644149     0.09800
C296        C  0.48977875  0.23559925  0.70829269     0.03500
C297        C  0.46129469  0.22080425  0.68681323    -0.05200
C298        C  0.42923009  0.22023762  0.69343255    -0.23600
C299        C  0.42612343  0.23527512  0.72212813     0.12800
C300        C  0.45476593  0.25012332  0.74360652    -0.12700
N301        N  0.02175063  0.23514238  0.70100089     0.64400
H302        H  0.46436545  0.20978270  0.66474092     0.12300
N303        N  0.39356584  0.23409211  0.73046108     0.61100
H304        H  0.45202502  0.26100223  0.76589555     0.08400
O305        O  0.03888634  0.20174749  0.82813488    -0.40400
O306        O  0.02412482  0.23174600  0.86013147    -0.39600
O307        O  0.02831905  0.33724456  0.73619918    -0.39600
O308        O  0.57144801  0.33295456  0.71402872    -0.37300
O309        O  0.36722328  0.20516831  0.74013442    -0.38200
O310        O  0.39260706  0.26270954  0.73201181    -0.34300
O311        O  0.02561083  0.20977076  0.71086725    -0.35700
O312        O  0.04357134  0.25705343  0.68111708    -0.40000
C313        C  0.23697487  0.01627293  0.71624565    -0.13700
C314        C  0.25852603  0.01938688  0.74217586     0.16700
C315        C  0.29336280  0.04903257  0.74436749     0.03000
C316        C  0.30642474  0.07495076  0.72038540    -0.12200
C317        C  0.28509313  0.07189703  0.69404164    -0.03300
C318        C  0.24986275  0.04202562  0.69216605     0.02200
C319        C  0.24486222  0.49008316  0.76557403     0.09000
N320        N  0.31562507  0.05310009  0.77092275     0.65400
H321        H  0.33334673  0.09772280  0.72255386     0.18300
N322        N  0.22729824  0.03657008  0.66543916     0.75900
H323        H  0.21069174  0.49239174  0.71356618     0.09800
C324        C  0.22234935  0.48823077  0.79029120     0.03500
C325        C  0.20809188  0.45908050  0.81108742    -0.05200
C326        C  0.21579977  0.43128317  0.80769235    -0.23600
C327        C  0.23792081  0.43291715  0.78222666     0.12800
C328        C  0.25252839  0.46253567  0.76177374    -0.12700
N329        N  0.21397154  0.51593589  0.79459660     0.64400
H330        H  0.19133939  0.45862031  0.83038389     0.12300
N331        N  0.24481299  0.40438762  0.77600703     0.61100
H332        H  0.26915542  0.46357846  0.74210700     0.08400
O333        O  0.20168151  0.54105254  0.66699249    -0.40400
O334        O  0.23034553  0.02189296  0.64074681    -0.39600
O335        O  0.34064066  0.04640129  0.76803266    -0.39600
O336        O  0.31257675  0.06673437  0.79630043    -0.37300
O337        O  0.21904717  0.37309729  0.77107279    -0.38200
O338        O  0.27627954  0.41146198  0.77008140    -0.34300
O339        O  0.18323825  0.51031377  0.78751493    -0.35700
O340        O  0.23528719  0.04474847  0.80677576    -0.40000
C341        C  0.27405575  0.01585599  0.53444492    -0.13700
C342        C  0.25316977  0.01744209  0.50988788     0.16700
C343        C  0.24610474  0.04574037  0.50892673     0.03000
C344        C  0.25983274  0.07195803  0.53267336    -0.12200
C345        C  0.28094626  0.07064308  0.55746471    -0.03300
C346        C  0.28778925  0.04188596  0.55826326     0.02200
C347        C  0.23825664  0.48863614  0.98595482     0.09000
N348        N  0.22551475  0.54843071  0.48369493     0.65400
H349        H  0.25442714  0.09382602  0.53132348     0.18300
N350        N  0.30768963  0.03800875  0.58348211     0.75900
H351        H  0.27941795  0.99393340  0.03526210     0.09800
C352        C  0.26068627  0.48546888  0.96384536     0.03500
C353        C  0.24657502  0.45629781  0.94313286    -0.05200
C354        C  0.21004475  0.42986303  0.94381984    -0.23600
C355        C  0.18765243  0.43290086  0.96652997     0.12800
C356        C  0.20190645  0.46242474  0.98707634    -0.12700
N357        N  0.29762778  0.01235651  0.96167717     0.64400
H358        H  0.26439068  0.45487126  0.92591535     0.12300
N359        N  0.15080975  0.40586851  0.96975268     0.61100
H360        H  0.18472961  0.46430132  0.50476972     0.08400
O361        O  0.33870171  0.04284515  0.07779448    -0.40400
O362        O  0.29264974  0.02503584  0.60967145    -0.39600
O363        O  0.19528865  0.54495354  0.48915352    -0.39600
O364        O  0.23894782  0.55729865  0.45635064    -0.37300
O365        O  0.14259056  0.37597281  0.98180431    -0.38200
O366        O  0.12663892  0.41327487  0.46468889    -0.34300
O367        O  0.32137027  0.00445888  0.96763519    -0.35700
O368        O  0.30662323  0.04321613  0.95153214    -0.40000
C369        C  0.29871606  0.26478024  0.51583547    -0.13700
C370        C  0.26176179  0.25110844  0.51413087     0.16700
C371        C  0.23868506  0.22205209  0.53340729     0.03000
C372        C  0.25278468  0.20701900  0.55402119    -0.12200
C373        C  0.28991279  0.22060978  0.55614353    -0.03300
C374        C  0.31303745  0.24968886  0.53632807     0.02200
C375        C  0.24727790  0.26504458  0.98995372     0.09000
N376        N  0.20089687  0.20817837  0.53277919     0.65400
H377        H  0.23438099  0.18495419  0.56898665     0.18300
N378        N  0.35089514  0.26386800  0.53618325     0.75900
H379        H  0.31647466  0.28658538  0.00031558     0.09800
C380        C  0.25306316  0.30002916  0.99162791     0.03500
C381        C  0.23968511  0.31251357  0.96769358    -0.05200
C382        C  0.22053100  0.29056135  0.94186636    -0.23600
C383        C  0.21577131  0.25573039  0.93987331     0.12800
C384        C  0.22866049  0.24322529  0.96412487    -0.12700
N385        N  0.27149640  0.32265287  0.01801030     0.64400
H386        H  0.24364685  0.33928273  0.96974043     0.12300
N387        N  0.19951404  0.23337474  0.91275538     0.61100
H388        H  0.22517619  0.21661225  0.46225321     0.08400
O389        O  0.37180951  0.29654039  0.04188361    -0.40400
O390        O  0.36337600  0.24551621  0.52469511    -0.39600
O391        O  0.17988205  0.17603524  0.52494186    -0.39600
O392        O  0.18835684  0.22727888  0.54223338    -0.37300
O393        O  0.21512910  0.24224812  0.88625941    -0.38200
O394        O  0.17221131  0.20271729  0.91609292    -0.34300
O395        O  0.30177938  0.35028597  0.01413611    -0.35700
O396        O  0.25618139  0.31645538  0.54469347    -0.40000
C397        C  0.24502166  0.20617176  0.73860112    -0.13700
C398        C  0.25012340  0.24057582  0.73412509     0.16700
C399        C  0.27084981  0.26137302  0.70833558     0.03000
C400        C  0.28629521  0.24767329  0.68777727    -0.12200
C401        C  0.28101923  0.21309784  0.69194096    -0.03300
C402        C  0.26030983  0.19231070  0.71791957     0.02200
C403        C  0.23641505  0.25567735  0.75809719     0.09000
N404        N  0.27550549  0.29602461  0.70223445     0.65400
H405        H  0.30162310  0.26391273  0.66773994     0.18300
N406        N  0.25577424  0.15779733  0.72439630     0.75900
H407        H  0.22998708  0.19038210  0.75895229     0.09800
C408        C  0.19987621  0.23852602  0.76599759     0.03500
C409        C  0.18828720  0.25282497  0.78979806    -0.05200
C410        C  0.21252978  0.28410079  0.80632011    -0.23600
C411        C  0.24943343  0.30087029  0.79866508     0.12800
C412        C  0.26075368  0.28671171  0.77452004    -0.12700
N413        N  0.17417498  0.20695496  0.74960270     0.64400
H414        H  0.15992461  0.23928612  0.79523790     0.12300
N415        N  0.27597095  0.33174283  0.81540397     0.61100
H416        H  0.28911570  0.29953327  0.76914885     0.08400
O417        O  0.22492793  0.13034239  0.72374347    -0.40400
O418        O  0.28195654  0.15521181  0.73410591    -0.39600
O419        O  0.30655353  0.32287605  0.69946914    -0.39600
O420        O  0.24862766  0.29929057  0.69682062    -0.37300
O421        O  0.28448327  0.32821439  0.84324416    -0.38200
O422        O  0.29624498  0.36003705  0.80025798    -0.34300
O423        O  0.15602937  0.17799106  0.76457396    -0.35700
O424        O  0.16750341  0.20867476  0.72073490    -0.40000
O425        O  0.21799411  0.89950723  0.40053845    -0.84700
O426        O  0.21673756  0.83706556  0.41537709    -0.81800
C427        C  0.20506686  0.80395242  0.41789091     0.98700
O428        O  0.18053017  0.78205507  0.39964236    -0.81800
O429        O  0.11937798  0.78315192  0.41565606    -0.84400
C430        C  0.09781795  0.79448558  0.41833257     1.03300
O431        O  0.10023341  0.81866529  0.39986100    -0.77200
O432        O  0.16307970  0.87956571  0.41648170    -0.77400
C433        C  0.19618259  0.90106162  0.41949178     1.03200
O434        O  0.21495190  0.88222729  0.33457879    -0.84700
O435        O  0.21986842  0.82298504  0.34949089    -0.81800
C436        C  0.19855450  0.79839767  0.33100981     0.98800
O437        O  0.16525726  0.78515743  0.33412305    -0.81800
O438        O  0.10133229  0.78025552  0.34981709    -0.84400
C439        C  0.09838147  0.80172476  0.33141932     1.03200
O440        O  0.11897460  0.83502282  0.33448176    -0.77200
O441        O  0.17800404  0.89919428  0.35100844    -0.77400
C442        C  0.20190880  0.90234397  0.33189550     1.03200
Cr443      Cr  0.21370172  0.85852628  0.37500644     1.93700
Cr444      Cr  0.14342966  0.78635293  0.37486252     1.93200
Cr445      Cr  0.14197605  0.85635266  0.37546571     1.39100
O446        O  0.16638786  0.83371442  0.37516216    -1.22500
O447        O  0.27902943  0.60225767  0.14948263    -0.84700
O448        O  0.28294629  0.66578169  0.16484207    -0.81800
C449        C  0.29580906  0.69902362  0.16797933     0.98700
O450        O  0.32023026  0.72066674  0.14951615    -0.81800
O451        O  0.37942893  0.71694700  0.16649844    -0.84400
C452        C  0.40021967  0.70478768  0.16961586     1.03300
O453        O  0.39775935  0.68061004  0.15116049    -0.77200
O454        O  0.33322487  0.62084644  0.16698419    -0.77400
C455        C  0.29986476  0.59995091  0.16912543     1.03200
O456        O  0.28409264  0.62085696  0.08372947    -0.84700
O457        O  0.28122758  0.68121911  0.09893417    -0.81800
C458        C  0.30335056  0.70542526  0.08056094     0.98800
O459        O  0.33636944  0.71751069  0.08411858    -0.81800
O460        O  0.39882428  0.71993401  0.10074367    -0.84400
C461        C  0.40098121  0.69811537  0.08219618     1.03200
O462        O  0.37998770  0.66489166  0.08557367    -0.77200
O463        O  0.31905473  0.60177121  0.10124251    -0.77400
C464        C  0.29566166  0.59940680  0.08181620     1.03200
Cr465      Cr  0.28544342  0.64435202  0.12428411     1.93700
Cr466      Cr  0.35688708  0.71513062  0.12523973     1.93200
Cr467      Cr  0.35575774  0.64383795  0.12620737     1.39100
O468        O  0.33270649  0.66780416  0.12518452    -1.22500
C469        C  0.47605838  0.75914819  0.02545719    -0.13700
C470        C  0.47988918  0.73411779  0.00742935     0.16700
C471        C  0.45794087  0.69740294  0.01410431     0.03000
C472        C  0.43283741  0.68641168  0.03868120    -0.12200
C473        C  0.42883013  0.71139406  0.05694705    -0.03300
C474        C  0.45111770  0.74836446  0.05011376     0.02200
C475        C  0.00856903  0.74719517  0.48318231     0.09000
N476        N  0.46019087  0.67098465  0.49551237     0.65400
H477        H  0.41602941  0.65792762  0.04318320     0.18300
N478        N  0.44939340  0.77546352  0.06812162     0.75900
H479        H  0.49339014  0.78757062  0.02088569     0.09800
C480        C  0.01020803  0.76990816  0.45852442     0.03500
C481        C  0.03979628  0.78541965  0.43830289    -0.05200
C482        C  0.06802303  0.77841718  0.44165749    -0.23600
C483        C  0.06610190  0.75521630  0.46622433     0.12800
C484        C  0.03644944  0.73981742  0.48658732    -0.12700
N485        N  0.48152591  0.77672959  0.45329785     0.64400
H486        H  0.04016100  0.80251405  0.41928924     0.12300
N487        N  0.09454689  0.74813878  0.47166228     0.61100
H488        H  0.03580108  0.72295751  0.00596467     0.08400
O489        O  0.44156987  0.79652869  0.05439109    -0.40400
O490        O  0.46299761  0.78316981  0.09551799    -0.39600
O491        O  0.46717120  0.64902015  0.00859304    -0.39600
O492        O  0.45173199  0.66733039  0.46654229    -0.37300
O493        O  0.12338731  0.77185786  0.48413992    -0.38200
O494        O  0.08923304  0.71690032  0.46783487    -0.34300
O495        O  0.48762572  0.80849474  0.45296320    -0.35700
O496        O  0.45087286  0.75135054  0.44583285    -0.40000
C497        C  0.01320444  0.74088038  0.28520749    -0.13700
C498        C  0.01521107  0.76374388  0.26086010     0.16700
C499        C  0.04477254  0.79870937  0.25920099     0.03000
C500        C  0.07184499  0.81042603  0.28208739    -0.12200
C501        C  0.06975768  0.78783567  0.30701767    -0.03300
C502        C  0.03994169  0.75256222  0.30835480     0.02200
C503        C  0.48646552  0.75016192  0.23696136     0.09000
N504        N  0.04723722  0.82271048  0.23473051     0.65400
H505        H  0.09443074  0.83752514  0.28049234     0.18300
N506        N  0.03567465  0.72863836  0.33357838     0.75300
H507        H  0.99041604  0.71384904  0.28644936     0.09800
C508        C  0.48979110  0.73561875  0.20828628     0.03500
C509        C  0.46130107  0.72082014  0.18681409    -0.05200
C510        C  0.42923151  0.72023681  0.19344915    -0.23600
C511        C  0.42612549  0.73526298  0.22215087     0.12800
C512        C  0.45477332  0.75011360  0.24362295    -0.12700
N513        N  0.02176068  0.73516754  0.20100268     0.64400
H514        H  0.46437030  0.70980787  0.16473536     0.12300
N515        N  0.39356342  0.73406404  0.23049609     0.61100
H516        H  0.45203313  0.76098178  0.26591860     0.08400
O517        O  0.03889125  0.70173582  0.32813397    -0.40400
O518        O  0.02413493  0.73173422  0.36013593    -0.39600
O519        O  0.02829856  0.83721791  0.23620111    -0.39600
O520        O  0.57148845  0.83299581  0.21405486    -0.37300
O521        O  0.36722643  0.70513074  0.24016063    -0.38200
O522        O  0.39259230  0.76267432  0.23205849    -0.34300
O523        O  0.02562512  0.70979362  0.21085475    -0.35700
O524        O  0.04357933  0.75708963  0.18112403    -0.40000
C525        C  0.23713213  0.51592154  0.21590701    -0.13700
C526        C  0.25847749  0.51927785  0.24207428     0.16700
C527        C  0.29307914  0.54924848  0.24457950     0.03000
C528        C  0.30613311  0.57524153  0.22065981    -0.12200
C529        C  0.28501911  0.57193049  0.19407166    -0.03300
C530        C  0.24999849  0.54177026  0.19191180     0.02200
C531        C  0.24491086  0.99018652  0.26567785     0.09000
N532        N  0.31515670  0.55350772  0.27133106     0.65400
H533        H  0.33289058  0.59823579  0.22303531     0.18300
N534        N  0.22763690  0.53615276  0.16499543     0.75900
H535        H  0.21038889  0.99290855  0.21408241     0.09800
C536        C  0.22198085  0.98803366  0.29012944     0.03500
C537        C  0.20767512  0.95881623  0.31085442    -0.05200
C538        C  0.21578104  0.93127052  0.30767990    -0.23600
C539        C  0.23830626  0.93319308  0.28245778     0.12800
C540        C  0.25294294  0.96286950  0.26207000    -0.12700
N541        N  0.21332607  0.01556461  0.29430516     0.64400
H542        H  0.19061589  0.95814423  0.32996397     0.12300
N543        N  0.24560638  0.90490494  0.27641725     0.61100
H544        H  0.26987609  0.96412504  0.24258510     0.08400
O545        O  0.20119365  0.04113511  0.16779537    -0.40400
O546        O  0.23048948  0.52082693  0.14067588    -0.39600
O547        O  0.33958494  0.54588914  0.26900398    -0.39600
O548        O  0.31280506  0.56846058  0.29613257    -0.37300
O549        O  0.22009467  0.87354445  0.27122906    -0.38200
O550        O  0.27724130  0.91228881  0.27085519    -0.34300
O551        O  0.18221634  0.00937971  0.28802428    -0.35700
O552        O  0.23565040  0.54452152  0.30828235    -0.40000
C553        C  0.27416409  0.51591812  0.03438530    -0.13700
C554        C  0.25322637  0.51747341  0.00985991     0.16700
C555        C  0.24612697  0.54574994  0.00892542     0.03000
C556        C  0.25986014  0.57196633  0.03267356    -0.12200
C557        C  0.28102894  0.57068406  0.05743097    -0.03300
C558        C  0.28792967  0.54196528  0.05818646     0.02200
C559        C  0.23820887  0.98860887  0.48598083     0.09000
N560        N  0.22561592  0.04848425  0.98362940     0.65400
H561        H  0.25441272  0.59380769  0.03135118     0.18300
N562        N  0.30795431  0.53816226  0.08333070     0.75900
H563        H  0.27963001  0.49407041  0.53512884     0.09800
C564        C  0.26063516  0.98549933  0.46382913     0.03500
C565        C  0.24653953  0.95633508  0.44310926    -0.05200
C566        C  0.21002792  0.92984906  0.44383398    -0.23600
C567        C  0.18764045  0.93282797  0.46658854     0.12800
C568        C  0.20187823  0.96234625  0.48714106    -0.12700
N569        N  0.29769040  0.51228948  0.46170784     0.64400
H570        H  0.26435003  0.95495294  0.42585793     0.12300
N571        N  0.15082372  0.90573854  0.46985312     0.61100
H572        H  0.18471081  0.96418061  0.00486886     0.08400
O573        O  0.33922387  0.54359058  0.57756650    -0.40400
O574        O  0.29286199  0.52462635  0.10937398    -0.39600
O575        O  0.19536844  0.04498667  0.98901660    -0.39600
O576        O  0.23913321  0.05740299  0.95631861    -0.37300
O577        O  0.14268840  0.87584424  0.48185724    -0.38200
O578        O  0.12660178  0.91309596  0.96485668    -0.34300
O579        O  0.32139230  0.50433028  0.46764860    -0.35700
O580        O  0.30674107  0.54317656  0.45159990    -0.40000
C581        C  0.29874892  0.76483247  0.01588482    -0.13700
C582        C  0.26178757  0.75110371  0.01412514     0.16700
C583        C  0.23870526  0.72199192  0.03334740     0.03000
C584        C  0.25280701  0.70696435  0.05396397    -0.12200
C585        C  0.28994094  0.72061435  0.05614309    -0.03300
C586        C  0.31307117  0.74974683  0.03638186     0.02200
C587        C  0.24728713  0.76502973  0.48994976     0.09000
N588        N  0.20090694  0.70805374  0.03266163     0.65400
H589        H  0.23439794  0.68485408  0.06888616     0.18300
N590        N  0.35093824  0.76398992  0.03630131     0.75900
H591        H  0.31649673  0.78669735  0.50043256     0.09800
C592        C  0.25304177  0.80000221  0.49164677     0.03500
C593        C  0.23966483  0.81249169  0.46771596    -0.05200
C594        C  0.22054126  0.79055660  0.44187081    -0.23600
C595        C  0.21581426  0.75574014  0.43985364     0.12800
C596        C  0.22870307  0.74322958  0.46410068    -0.12700
N597        N  0.27143858  0.82260602  0.51804992     0.64400
H598        H  0.24360033  0.83924932  0.46978039     0.12300
N599        N  0.19959236  0.73340734  0.41271606     0.61100
H600        H  0.22525248  0.71663661  0.96221846     0.08400
O601        O  0.37175976  0.79665839  0.54223921    -0.40400
O602        O  0.36350278  0.74574859  0.02473196    -0.39600
O603        O  0.17995283  0.67590837  0.02479182    -0.39600
O604        O  0.18829437  0.72709688  0.04209855    -0.37300
O605        O  0.21521565  0.74233214  0.38622574    -0.38200
O606        O  0.17232173  0.70272259  0.41602865    -0.34300
O607        O  0.30170760  0.85026560  0.51420204    -0.35700
O608        O  0.25614532  0.81641037  0.04471257    -0.40000
C609        C  0.24500194  0.70614402  0.23859953    -0.13700
C610        C  0.25013196  0.74056172  0.23414163     0.16700
C611        C  0.27088240  0.76136981  0.20836615     0.03000
C612        C  0.28631810  0.74766509  0.18780271    -0.12200
C613        C  0.28101126  0.71307560  0.19194663    -0.03300
C614        C  0.26028217  0.69227897  0.21791306     0.02200
C615        C  0.23642604  0.75566258  0.25811789     0.09000
N616        N  0.27557513  0.79603977  0.20228457     0.65400
H617        H  0.30166441  0.76391409  0.16777644     0.18300
N618        N  0.25571907  0.65775144  0.22437355     0.75900
H619        H  0.22995122  0.69034550  0.25894117     0.09800
C620        C  0.19988752  0.73851400  0.26601996     0.03500
C621        C  0.18830238  0.75281450  0.28982234    -0.05200
C622        C  0.21254636  0.78409138  0.30634277    -0.23600
C623        C  0.24945079  0.80085707  0.29868786     0.12800
C624        C  0.26076685  0.78669413  0.27454265    -0.12700
N625        N  0.17418189  0.70694621  0.24962321     0.64400
H626        H  0.15993971  0.73927797  0.29526206     0.12300
N627        N  0.27599397  0.83173145  0.31542250     0.61100
H628        H  0.28912883  0.79951118  0.26917205     0.08400
O629        O  0.22486229  0.63031175  0.22371596    -0.40400
O630        O  0.28188651  0.65513851  0.23408060    -0.39600
O631        O  0.30663619  0.82287287  0.19952752    -0.39600
O632        O  0.24871723  0.79934149  0.19687767    -0.37300
O633        O  0.28445533  0.82821651  0.34328637    -0.38200
O634        O  0.29633609  0.85998807  0.30025809    -0.34300
O635        O  0.15600257  0.67799150  0.26459887    -0.35700
O636        O  0.16754485  0.70866088  0.22074499    -0.40000
O637        O  0.21798739  0.89951805  0.90053887    -0.84700
O638        O  0.21674568  0.83708414  0.91538355    -0.81800
C639        C  0.20508404  0.80397240  0.91789410     0.98700
O640        O  0.18054461  0.78207041  0.89965012    -0.81800
O641        O  0.11938326  0.78315239  0.91566161    -0.84400
C642        C  0.09781975  0.79448197  0.91833656     1.03300
O643        O  0.10023256  0.81865999  0.89986450    -0.77200
O644        O  0.16307207  0.87956794  0.91648406    -0.77400
C645        C  0.19617419  0.90106823  0.91949282     1.03200
O646        O  0.21494500  0.88223046  0.83458109    -0.84700
O647        O  0.21987923  0.82300070  0.84950076    -0.81800
C648        C  0.19856916  0.79840911  0.83102149     0.98800
O649        O  0.16527112  0.78516566  0.83413152    -0.81800
O650        O  0.10133950  0.78025114  0.84982136    -0.84400
C651        C  0.09838803  0.80171822  0.83142135     1.03200
O652        O  0.11897509  0.83501643  0.83448591    -0.77200
O653        O  0.17799139  0.89918898  0.85100664    -0.77400
C654        C  0.20189258  0.90233797  0.83188959     1.03200
Cr655      Cr  0.21370321  0.85853835  0.87501150     1.93700
Cr656      Cr  0.14343894  0.78635751  0.87486931     1.93200
Cr657      Cr  0.14197131  0.85634959  0.87546875     1.39100
O658        O  0.16638981  0.83371864  0.87516821    -1.22500
O659        O  0.27904055  0.60225929  0.64949364    -0.84700
O660        O  0.28296095  0.66578257  0.66486131    -0.81800
C661        C  0.29582478  0.69902434  0.66799974     0.98700
O662        O  0.32024057  0.72066711  0.64953223    -0.81800
O663        O  0.37944612  0.71695391  0.66649554    -0.84400
C664        C  0.40023491  0.70479188  0.66960977     1.03300
O665        O  0.39777094  0.68061400  0.65115338    -0.77200
O666        O  0.33323992  0.62085244  0.66699006    -0.77400
C667        C  0.29988049  0.59995408  0.66913175     1.03200
O668        O  0.28408817  0.62085808  0.58374451    -0.84700
O669        O  0.28122166  0.68121818  0.59895612    -0.81800
C670        C  0.30333799  0.70542366  0.58057869     0.98800
O671        O  0.33635830  0.71751141  0.58412902    -0.81800
O672        O  0.39882028  0.71993800  0.60073473    -0.84400
C673        C  0.40097738  0.69811863  0.58218856     1.03200
O674        O  0.37998742  0.66489459  0.58557040    -0.77200
O675        O  0.31905664  0.60177630  0.60124587    -0.77400
C676        C  0.29566064  0.59941110  0.58182290     1.03200
Cr677      Cr  0.28544788  0.64435330  0.62430028     1.93700
Cr678      Cr  0.35689043  0.71513357  0.62524341     1.93200
Cr679      Cr  0.35576427  0.64384218  0.62620771     1.39100
O680        O  0.33271167  0.66780726  0.62519059    -1.22500
C681        C  0.47602717  0.75914493  0.52542150    -0.13700
C682        C  0.47987681  0.73411385  0.50741303     0.16700
C683        C  0.45794992  0.69740167  0.51410984     0.03000
C684        C  0.43284872  0.68641390  0.53868845    -0.12200
C685        C  0.42882353  0.71139691  0.55693625    -0.03300
C686        C  0.45109048  0.74836558  0.55008164     0.02200
C687        C  0.00857130  0.74719357  0.98318552     0.09000
N688        N  0.46016120  0.67098795  0.99548539     0.65400
H689        H  0.41605777  0.65793141  0.54320728     0.18300
N690        N  0.44935066  0.77546823  0.56807060     0.75900
H691        H  0.49334373  0.78756601  0.52083371     0.09800
C692        C  0.01021607  0.76991529  0.95853391     0.03500
C693        C  0.03980363  0.78542492  0.93831211    -0.05200
C694        C  0.06802424  0.77841218  0.94166064    -0.23600
C695        C  0.06609651  0.75520159  0.96622102     0.12800
C696        C  0.03644437  0.73980433  0.98658420    -0.12700
N697        N  0.48156573  0.77678391  0.95334632     0.64400
H698        H  0.04017294  0.80252719  0.91930364     0.12300
N699        N  0.09453410  0.74811153  0.97165190     0.61100
H700        H  0.03581171  0.72297883  0.50597267     0.08400
O701        O  0.44156575  0.79654797  0.55431314    -0.40400
O702        O  0.46292330  0.78317201  0.59547883    -0.39600
O703        O  0.46722749  0.64904497  0.50863886    -0.39600
O704        O  0.45170798  0.66736377  0.96651464    -0.37300
O705        O  0.12337247  0.77181617  0.98414358    -0.38200
O706        O  0.08921349  0.71687304  0.96780537    -0.34300
O707        O  0.48768642  0.80855657  0.95303703    -0.35700
O708        O  0.45090587  0.75142415  0.94587163    -0.40000
C709        C  0.01323309  0.74086790  0.78518531    -0.13700
C710        C  0.01523011  0.76374289  0.76085267     0.16700
C711        C  0.04477984  0.79871585  0.75920876     0.03000
C712        C  0.07184935  0.81042992  0.78209700    -0.12200
C713        C  0.06977081  0.78782860  0.80701412    -0.03300
C714        C  0.03996820  0.75254643  0.80833420     0.02200
C715        C  0.48648273  0.75015496  0.73695157     0.09000
N716        N  0.04723534  0.82272672  0.73475183     0.65400
H717        H  0.09442520  0.83753576  0.78051408     0.18300
N718        N  0.03571248  0.72860925  0.83354179     0.75300
H719        H  0.99045377  0.71383031  0.78641470     0.09800
C720        C  0.48980402  0.73560796  0.70827749     0.03500
C721        C  0.46131304  0.72081184  0.68680660    -0.05200
C722        C  0.42924711  0.72023588  0.69344230    -0.23600
C723        C  0.42614453  0.73526372  0.72214433     0.12800
C724        C  0.45479408  0.75011297  0.74361442    -0.12700
N725        N  0.02178191  0.73518579  0.70098629     0.64400
H726        H  0.46437943  0.70979788  0.66472778     0.12300
N727        N  0.39358373  0.73406633  0.73049242     0.61100
H728        H  0.45205705  0.76098261  0.76591043     0.08400
O729        O  0.03897842  0.70173853  0.82808285    -0.40400
O730        O  0.02413880  0.73165997  0.86009757    -0.39600
O731        O  0.02830791  0.83724473  0.73624975    -0.39600
O732        O  0.57143505  0.83298030  0.71404843    -0.37300
O733        O  0.36723772  0.70512724  0.74013590    -0.38200
O734        O  0.39261902  0.76267904  0.73207354    -0.34300
O735        O  0.02563847  0.70979760  0.71081063    -0.35700
O736        O  0.04361282  0.75713319  0.68112922    -0.40000
C737        C  0.23722662  0.51579614  0.71578550    -0.13700
C738        C  0.25849550  0.51923878  0.74203790     0.16700
C739        C  0.29301469  0.54931924  0.74464894     0.03000
C740        C  0.30606830  0.57533387  0.72074660    -0.12200
C741        C  0.28503688  0.57192720  0.69406876    -0.03300
C742        C  0.25009428  0.54166391  0.69180699     0.02200
C743        C  0.24489656  0.99021445  0.76570345     0.09000
N744        N  0.31502393  0.55364942  0.77147201     0.65400
H745        H  0.33276414  0.59840839  0.72319542     0.18300
N746        N  0.22782438  0.53596481  0.66480310     0.75900
H747        H  0.21021162  0.99315615  0.71431377     0.09800
C748        C  0.22176833  0.98791934  0.79002594     0.03500
C749        C  0.20744739  0.95867600  0.81072333    -0.05200
C750        C  0.21574983  0.93125620  0.80766247    -0.23600
C751        C  0.23846631  0.93331505  0.78255870     0.12800
C752        C  0.25310952  0.96301271  0.76219584    -0.12700
N753        N  0.21297621  0.01536372  0.79413294     0.64400
H754        H  0.19024222  0.95790313  0.82974192     0.12300
N755        N  0.24596892  0.90514760  0.77661369     0.61100
H756        H  0.27019030  0.96436997  0.74280103     0.08400
O757        O  0.20105767  0.04143277  0.66817127    -0.40400
O758        O  0.23093947  0.52079892  0.64048973    -0.39600
O759        O  0.33923116  0.54569658  0.76935827    -0.39600
O760        O  0.31292395  0.56906439  0.79605861    -0.37300
O761        O  0.22058630  0.87375365  0.77129999    -0.38200
O762        O  0.27768583  0.91268431  0.77123908    -0.34300
O763        O  0.18170763  0.00892380  0.78820574    -0.35700
O764        O  0.23574959  0.54440273  0.80882651    -0.40000
C765        C  0.27432199  0.51604279  0.53426383    -0.13700
C766        C  0.25319752  0.51748515  0.50985417     0.16700
C767        C  0.24591881  0.54564391  0.50904224     0.03000
C768        C  0.25966826  0.57185811  0.53279156    -0.12200
C769        C  0.28102476  0.57069014  0.55743314    -0.03300
C770        C  0.28810118  0.54208539  0.55806827     0.02200
C771        C  0.23818218  0.98861789  0.98597822     0.09000
N772        N  0.22593316  0.04865385  0.48343968     0.65400
H773        H  0.25407793  0.59360769  0.53156056     0.18300
N774        N  0.30833445  0.53839723  0.58308693     0.75900
H775        H  0.27933337  0.49385690  0.03534186     0.09800
C776        C  0.26059955  0.98555084  0.96378620     0.03500
C777        C  0.24651156  0.95638461  0.94306912    -0.05200
C778        C  0.21001605  0.92985741  0.94383249    -0.23600
C779        C  0.18763718  0.93279613  0.96662266     0.12800
C780        C  0.20186664  0.96231476  0.98717472    -0.12700
N781        N  0.29775356  0.51217875  0.96181384     0.64400
H782        H  0.26431297  0.95503528  0.92578652     0.12300
N783        N  0.15084195  0.90566231  0.96992737     0.61100
H784        H  0.18471390  0.96424511  0.50480501     0.08400
O785        O  0.33882501  0.54322255  0.07797658    -0.40400
O786        O  0.29341205  0.52481249  0.60917500    -0.39600
O787        O  0.19569174  0.04522636  0.48869785    -0.39600
O788        O  0.23958532  0.05757740  0.45617685    -0.37300
O789        O  0.14277576  0.87577143  0.98189681    -0.38200
O790        O  0.12662919  0.91322023  0.46471339    -0.34300
O791        O  0.32139609  0.50417150  0.96787581    -0.35700
O792        O  0.30688782  0.54305789  0.95162822    -0.40000
C793        C  0.29871437  0.76479490  0.51587653    -0.13700
C794        C  0.26175607  0.75109632  0.51415258     0.16700
C795        C  0.23868159  0.72201826  0.53341065     0.03000
C796        C  0.25278796  0.70699110  0.55402339    -0.12200
C797        C  0.28991940  0.72060974  0.55616495    -0.03300
C798        C  0.31304149  0.74971069  0.53637031     0.02200
C799        C  0.24732718  0.76504603  0.98992381     0.09000
N800        N  0.20088846  0.70811648  0.53276643     0.65400
H801        H  0.23438567  0.68490801  0.56897338     0.18300
N802        N  0.35090366  0.76392093  0.53624998     0.75900
H803        H  0.31653897  0.78676202  0.00046815     0.09800
C804        C  0.25303270  0.79999846  0.99165668     0.03500
C805        C  0.23965228  0.81249304  0.96773338    -0.05200
C806        C  0.22057311  0.79058190  0.94186239    -0.23600
C807        C  0.21590045  0.75578966  0.93980741     0.12800
C808        C  0.22879246  0.74327306  0.96404614    -0.12700
N809        N  0.27137881  0.82257296  0.01808938     0.64400
H810        H  0.24354572  0.83923239  0.96982480     0.12300
N811        N  0.19973156  0.73349148  0.91264052     0.61100
H812        H  0.22512362  0.71657569  0.46229974     0.08400
O813        O  0.37176059  0.79671081  0.04238002    -0.40400
O814        O  0.36342242  0.74561940  0.52472436    -0.39600
O815        O  0.17989482  0.67595987  0.52495433    -0.39600
O816        O  0.18832253  0.72720582  0.54218828    -0.37300
O817        O  0.21537044  0.74248849  0.88616010    -0.38200
O818        O  0.17249706  0.70277407  0.91591315    -0.34300
O819        O  0.30163414  0.85026239  0.01428111    -0.35700
O820        O  0.25623929  0.81650052  0.54468600    -0.40000
C821        C  0.24499616  0.70613765  0.73860649    -0.13700
C822        C  0.25016599  0.74057361  0.73417002     0.16700
C823        C  0.27095547  0.76139713  0.70841707     0.03000
C824        C  0.28638464  0.74768685  0.68785310    -0.12200
C825        C  0.28103448  0.71307797  0.69197285    -0.03300
C826        C  0.26027004  0.69226734  0.71791893     0.02200
C827        C  0.23645560  0.75567198  0.75814477     0.09000
N828        N  0.27569610  0.79609025  0.70235792     0.65400
H829        H  0.30176073  0.76394939  0.66784391     0.18300
N830        N  0.25565922  0.65771642  0.72435620     0.75900
H831        H  0.22991608  0.69032588  0.75893198     0.09800
C832        C  0.19991324  0.73853033  0.76603330     0.03500
C833        C  0.18832452  0.75282988  0.78983341    -0.05200
C834        C  0.21256654  0.78410136  0.80636118    -0.23600
C835        C  0.24947398  0.80086030  0.79871933     0.12800
C836        C  0.26079470  0.78669513  0.77458037    -0.12700
N837        N  0.17420723  0.70697285  0.74962366     0.64400
H838        H  0.15995933  0.73929905  0.79526290     0.12300
N839        N  0.27601532  0.83173216  0.81545823     0.61100
H840        H  0.28915926  0.79950592  0.76922147     0.08400
O841        O  0.22478882  0.63029833  0.72365887    -0.40400
O842        O  0.28179373  0.65505862  0.73408456    -0.39600
O843        O  0.30677416  0.82290142  0.69962094    -0.39600
O844        O  0.24886474  0.79943664  0.69695052    -0.37300
O845        O  0.28445584  0.82821679  0.84332997    -0.38200
O846        O  0.29637950  0.85998067  0.80029307    -0.34300
O847        O  0.15597807  0.67802511  0.76459647    -0.35700
O848        O  0.16762337  0.70869192  0.72073178    -0.40000
O849        O  0.71799509  0.39952376  0.40052616    -0.84700
O850        O  0.71674598  0.33708706  0.41536568    -0.81800
C851        C  0.70507908  0.30397460  0.41787753     0.98700
O852        O  0.68054090  0.28207505  0.39963071    -0.81800
O853        O  0.61938648  0.28316318  0.41565080    -0.84400
C854        C  0.59782490  0.29449438  0.41832967     1.03300
O855        O  0.60023793  0.31867529  0.39986140    -0.77200
O856        O  0.66308479  0.37957560  0.41648378    -0.77400
C857        C  0.69618771  0.40107565  0.41948641     1.03200
O858        O  0.71494119  0.38223628  0.33456746    -0.84700
O859        O  0.71986994  0.32300191  0.34948156    -0.81800
C860        C  0.69855575  0.29841692  0.33099900     0.98800
O861        O  0.66525884  0.28517714  0.33411234    -0.81800
O862        O  0.60133417  0.28027032  0.34981295    -0.84400
C863        C  0.59838054  0.30174020  0.33141787     1.03200
O864        O  0.61897087  0.33503866  0.33448370    -0.77200
O865        O  0.67800299  0.39921112  0.35101281    -0.77400
C866        C  0.70189983  0.40235539  0.33189319     1.03200
Cr867      Cr  0.71370269  0.35854280  0.37499556     1.93700
Cr868      Cr  0.64343461  0.28636842  0.37485485     1.93200
Cr869      Cr  0.64197677  0.35636608  0.37546746     1.39100
O870        O  0.66638962  0.33372916  0.37515684    -1.22500
O871        O  0.77904554  0.10226844  0.14950752    -0.84700
O872        O  0.78296651  0.16579422  0.16486414    -0.81800
C873        C  0.79582322  0.19903568  0.16799267     0.98700
O874        O  0.82023382  0.22067447  0.14951971    -0.81800
O875        O  0.87944069  0.21695908  0.16648067    -0.84400
C876        C  0.90023215  0.20479984  0.16959319     1.03300
O877        O  0.89777127  0.18062462  0.15113382    -0.77200
O878        O  0.83325469  0.12084838  0.16696754    -0.77400
C879        C  0.79989703  0.09994974  0.16912377     1.03200
O880        O  0.78405822  0.12084271  0.08375359    -0.84700
O881        O  0.78120691  0.18121330  0.09895314    -0.81800
C882        C  0.80332047  0.20541975  0.08057343     0.98800
O883        O  0.83634162  0.21750813  0.08411923    -0.81800
O884        O  0.89881118  0.21994301  0.10072022    -0.84400
C885        C  0.90096886  0.19812529  0.08217271     1.03200
O886        O  0.87997410  0.16490245  0.08554886    -0.77200
O887        O  0.81905383  0.10178185  0.10123004    -0.77400
C888        C  0.79563235  0.09939777  0.08182830     1.03200
Cr889      Cr  0.78544018  0.14435405  0.12430522     1.93700
Cr890      Cr  0.85688097  0.21513617  0.12523071     1.93200
Cr891      Cr  0.85576331  0.14384852  0.12618785     1.39100
O892        O  0.83270456  0.16780903  0.12518163    -1.22500
C893        C  0.97602547  0.25914549  0.02541079    -0.13700
C894        C  0.97988739  0.23411341  0.00741575     0.16700
C895        C  0.95797048  0.19740271  0.01412360     0.03000
C896        C  0.93286258  0.18641766  0.03869610    -0.12200
C897        C  0.92882242  0.21140184  0.05692787    -0.03300
C898        C  0.95108345  0.24836904  0.05006595     0.02200
C899        C  0.50858078  0.24719973  0.48317837     0.09000
N900        N  0.96020225  0.17098567  0.49552089     0.65400
H901        H  0.91607856  0.15793590  0.04322314     0.18300
N902        N  0.94933071  0.27547310  0.06804108     0.75900
H903        H  0.99333597  0.28756603  0.02081560     0.09800
C904        C  0.51020901  0.26989841  0.45851246     0.03500
C905        C  0.53979533  0.28541056  0.43829028    -0.05200
C906        C  0.56803021  0.27842168  0.44165261    -0.23600
C907        C  0.56611845  0.25523206  0.46622599     0.12800
C908        C  0.53646776  0.23983303  0.48659037    -0.12700
N909        N  0.98152370  0.27672011  0.45329314     0.64400
H910        H  0.54015273  0.30249527  0.41927079     0.12300
N911        N  0.59457172  0.24816846  0.47166968     0.61100
H912        H  0.53585700  0.22303791  0.00599809     0.08400
O913        O  0.94156303  0.29655642  0.05426616    -0.40400
O914        O  0.96288142  0.28317692  0.09545745    -0.39600
O915        O  0.96728249  0.14906469  0.00868599    -0.39600
O916        O  0.95174221  0.16732132  0.46655088    -0.37300
O917        O  0.62340259  0.27189158  0.48415776    -0.38200
O918        O  0.58927343  0.21693650  0.46783625    -0.34300
O919        O  0.98761846  0.30848360  0.45296737    -0.35700
O920        O  0.95087387  0.25134039  0.44582098    -0.40000
C921        C  0.51322544  0.24088260  0.28518082    -0.13700
C922        C  0.51522157  0.26375366  0.26084481     0.16700
C923        C  0.54476632  0.29872984  0.25920400     0.03000
C924        C  0.57183337  0.31045008  0.28209589    -0.12200
C925        C  0.56975833  0.28785087  0.30701359    -0.03300
C926        C  0.53995762  0.25256680  0.30833356     0.02200
C927        C  0.98647322  0.25016398  0.23694522     0.09000
N928        N  0.54722137  0.32273625  0.23474350     0.65400
H929        H  0.59440700  0.33755729  0.28051270     0.18300
N930        N  0.53570080  0.22863300  0.33354472     0.75300
H931        H  0.49044856  0.21384339  0.28641008     0.09800
C932        C  0.98979699  0.23561411  0.20827342     0.03500
C933        C  0.96130899  0.22081888  0.18679862    -0.05200
C934        C  0.92924270  0.22024455  0.19342856    -0.23600
C935        C  0.92613781  0.23527494  0.22212847     0.12800
C936        C  0.95478423  0.25012372  0.24360202    -0.12700
N937        N  0.52175932  0.23513836  0.20100605     0.64400
H938        H  0.96437727  0.20980236  0.16472222     0.12300
N939        N  0.89357771  0.23408176  0.23047097     0.61100
H940        H  0.95204495  0.26099605  0.26589550     0.08400
O941        O  0.53895665  0.20175574  0.32808887    -0.40400
O942        O  0.52413455  0.23169323  0.36010103    -0.39600
O943        O  0.52834207  0.33730509  0.23626769    -0.39600
O944        O  0.07146814  0.33297678  0.21403158    -0.37300
O945        O  0.86723576  0.20514955  0.24013110    -0.38200
O946        O  0.89261260  0.26269512  0.23203540    -0.34300
O947        O  0.52558409  0.20972882  0.21082453    -0.35700
O948        O  0.54361768  0.25709244  0.18116861    -0.40000
C949        C  0.73714315  0.01598201  0.21597313    -0.13700
C950        C  0.75852329  0.01930654  0.24210394     0.16700
C951        C  0.79316550  0.04922421  0.24455191     0.03000
C952        C  0.80622006  0.07519835  0.22061558    -0.12200
C953        C  0.78507035  0.07191870  0.19406363    -0.03300
C954        C  0.75001760  0.04180053  0.19195097     0.02200
C955        C  0.74485213  0.49013363  0.26561923     0.09000
N956        N  0.81527533  0.05345965  0.27127221     0.65400
H957        H  0.83300255  0.09816077  0.22295610     0.18300
N958        N  0.72763602  0.03618256  0.16504800     0.75900
H959        H  0.71048314  0.49267649  0.21384123     0.09800
C960        C  0.72210319  0.48811102  0.29018733     0.03500
C961        C  0.70782509  0.45892610  0.31094623    -0.05200
C962        C  0.71576551  0.43127555  0.30767748    -0.23600
C963        C  0.73811108  0.43307078  0.28234610     0.12800
C964        C  0.75272897  0.46271887  0.26192712    -0.12700
N965        N  0.71356212  0.51571365  0.29441748     0.64400
H966        H  0.69090029  0.45834629  0.33013865     0.12300
N967        N  0.74523576  0.40467855  0.27622764     0.61100
H968        H  0.76952799  0.46388191  0.24236162     0.08400
O969        O  0.70162169  0.54158985  0.16740629    -0.40400
O970        O  0.73079473  0.02128105  0.14056456    -0.39600
O971        O  0.83981443  0.04600972  0.26885002    -0.39600
O972        O  0.81279737  0.06819054  0.29617163    -0.37300
O973        O  0.71961369  0.37334787  0.27114845    -0.38200
O974        O  0.77679923  0.41192887  0.27051056    -0.34300
O975        O  0.68259786  0.50975154  0.28781924    -0.35700
O976        O  0.73564323  0.04456926  0.30808186    -0.40000
C977        C  0.77423201  0.01598240  0.03431878    -0.13700
C978        C  0.75315848  0.01745564  0.00987767     0.16700
C979        C  0.74592444  0.04564332  0.00903352     0.03000
C980        C  0.75967182  0.07186039  0.03278014    -0.12200
C981        C  0.78097568  0.07066083  0.05745456    -0.03300
C982        C  0.78799703  0.04201963  0.05812928     0.02200
C983        C  0.73824059  0.48863969  0.48596072     0.09000
N984        N  0.72602814  0.54871251  0.98339962     0.65400
H985        H  0.75412358  0.09363702  0.03152138     0.18300
N986        N  0.80814296  0.03828072  0.08320114     0.75900
H987        H  0.77922397  0.99380353  0.53538522     0.09800
C988        C  0.76066476  0.48550085  0.46382405     0.03500
C989        C  0.74655886  0.45632791  0.44311402    -0.05200
C990        C  0.71003919  0.42986600  0.44382601    -0.23600
C991        C  0.68765240  0.43287600  0.46656044     0.12800
C992        C  0.70190038  0.46240036  0.48710630    -0.12700
N993        N  0.79768878  0.01225199  0.46176620     0.64400
H994        H  0.76436840  0.45492397  0.42587503     0.12300
N995        N  0.65082445  0.40581259  0.46981097     0.61100
H996        H  0.68473313  0.46438819  0.00469235     0.08400
O997        O  0.83842698  0.04259751  0.57805554    -0.40400
O998        O  0.79322078  0.02497285  0.10935524    -0.39600
O999        O  0.69580987  0.54534439  0.98864887    -0.39600
O1000       O  0.73968348  0.55759784  0.95613490    -0.37300
O1001       O  0.64265367  0.37591586  0.48183113    -0.38200
O1002       O  0.62667834  0.41344900  0.96448936    -0.34300
O1003       O  0.82137141  0.00429922  0.46782345    -0.35700
O1004       O  0.80676814  0.04311076  0.45156227    -0.40000
C1005       C  0.79869646  0.26477511  0.01585246    -0.13700
C1006       C  0.76174295  0.25111261  0.01416093     0.16700
C1007       C  0.73867018  0.22206600  0.03344873     0.03000
C1008       C  0.75277282  0.20703075  0.05405708    -0.12200
C1009       C  0.78990016  0.22061041  0.05616401    -0.03300
C1010       C  0.81302081  0.24968254  0.03634053     0.02200
C1011       C  0.74729737  0.26504332  0.48992695     0.09000
N1012       N  0.70088370  0.20820476  0.03283778     0.65400
H1013       H  0.73437219  0.18497297  0.06903072     0.18300
N1014       N  0.85087692  0.26385230  0.03618191     0.75900
H1015       H  0.81650276  0.28670050  0.50041190     0.09800
C1016       C  0.75301509  0.30000070  0.49165017     0.03500
C1017       C  0.73964293  0.31249648  0.46772044    -0.05200
C1018       C  0.72055937  0.29058131  0.44185256    -0.23600
C1019       C  0.71587259  0.25578291  0.43980854     0.12800
C1020       C  0.72875628  0.24326511  0.46405381    -0.12700
N1021       N  0.77136764  0.32258040  0.51807847     0.64400
H1022       H  0.74354677  0.33924033  0.46980422     0.12300
N1023       N  0.69969826  0.23347923  0.41264583     0.61100
H1024       H  0.72510842  0.21658616  0.96231177     0.08400
O1025       O  0.87176220  0.29665335  0.54220554    -0.40400
O1026       O  0.86334434  0.24548589  0.02469993    -0.39600
O1027       O  0.67985430  0.17605631  0.02502516    -0.39600
O1028       O  0.68836079  0.22732176  0.04228768    -0.37300
O1029       O  0.71534034  0.24246104  0.38616617    -0.38200
O1030       O  0.67244936  0.20277251  0.41592175    -0.34300
O1031       O  0.80162047  0.35027106  0.51426323    -0.35700
O1032       O  0.75621983  0.31652450  0.04468615    -0.40000
C1033       C  0.74500815  0.20616085  0.23860362    -0.13700
C1034       C  0.75014934  0.24058294  0.23414729     0.16700
C1035       C  0.77091185  0.26139312  0.20837812     0.03000
C1036       C  0.78634764  0.24768564  0.18781835    -0.12200
C1037       C  0.78102882  0.21309119  0.19195961    -0.03300
C1038       C  0.76028796  0.19229269  0.21792048     0.02200
C1039       C  0.73643900  0.25568437  0.25811788     0.09000
N1040       N  0.77561570  0.29606775  0.20229825     0.65400
H1041       H  0.80170289  0.26393669  0.16779637     0.18300
N1042       N  0.75570843  0.15775790  0.22437688     0.75900
H1043       H  0.72994683  0.19036013  0.25894046     0.09800
C1044       C  0.69989661  0.23854270  0.26600483     0.03500
C1045       C  0.68830586  0.25284274  0.28980276    -0.05200
C1046       C  0.71254819  0.28411273  0.30633189    -0.23600
C1047       C  0.74945471  0.30087301  0.29868960     0.12800
C1048       C  0.76077767  0.28671013  0.27455084    -0.12700
N1049       N  0.67419340  0.20698278  0.24959714     0.64400
H1050       H  0.65994094  0.23931144  0.29523241     0.12300
N1051       N  0.77599225  0.33174243  0.31543224     0.61100
H1052       H  0.78914192  0.29952342  0.26919090     0.08400
O1053       O  0.72484851  0.13032392  0.22369543    -0.40400
O1054       O  0.78186206  0.15513107  0.23410130    -0.39600
O1055       O  0.80668095  0.32289713  0.19955342    -0.39600
O1056       O  0.74876469  0.29937783  0.19688038    -0.37300
O1057       O  0.78448010  0.32821374  0.34328181    -0.38200
O1058       O  0.79629420  0.36002551  0.30028400    -0.34300
O1059       O  0.65599869  0.17802532  0.26456509    -0.35700
O1060       O  0.66757311  0.20870830  0.22071635    -0.40000
O1061       O  0.71800267  0.39951967  0.90052733    -0.84700
O1062       O  0.71673814  0.33707709  0.91536910    -0.81800
C1063       C  0.70506513  0.30396393  0.91788424     0.98700
O1064       O  0.68053105  0.28206747  0.89963242    -0.81800
O1065       O  0.61938413  0.28316909  0.91564958    -0.84400
C1066       C  0.59782440  0.29450257  0.91832746     1.03300
O1067       O  0.60023977  0.31868429  0.89985818    -0.77200
O1068       O  0.66309239  0.37957912  0.91648101    -0.77400
C1069       C  0.69619564  0.40107662  0.91948469     1.03200
O1070       O  0.71495355  0.38223262  0.83456946    -0.84700
O1071       O  0.71986409  0.32298814  0.84948413    -0.81800
C1072       C  0.69854747  0.29840827  0.83099822     0.98800
O1073       O  0.66525124  0.28517267  0.83411173    -0.81800
O1074       O  0.60133148  0.28027662  0.84981234    -0.84400
C1075       C  0.59837898  0.30174721  0.83141714     1.03200
O1076       O  0.61897551  0.33504594  0.83447912    -0.77200
O1077       O  0.67802278  0.39922163  0.85101466    -0.77400
C1078       C  0.70192690  0.40236550  0.83190386     1.03200
Cr1079     Cr  0.71370426  0.35853500  0.87499737     1.93700
Cr1080     Cr  0.64342962  0.28636845  0.87485424     1.93200
Cr1081     Cr  0.64198443  0.35637319  0.87546432     1.39100
O1082       O  0.66639090  0.33372929  0.87515507    -1.22500
O1083       O  0.77904166  0.10227224  0.64950040    -0.84700
O1084       O  0.78296501  0.16579890  0.66485602    -0.81800
C1085       C  0.79581879  0.19904000  0.66798261     0.98700
O1086       O  0.82023017  0.22067820  0.64951006    -0.81800
O1087       O  0.87943049  0.21695005  0.66647894    -0.84400
C1088       C  0.90022114  0.20478946  0.66959062     1.03300
O1089       O  0.89776416  0.18061956  0.65112521    -0.77200
O1090       O  0.83325268  0.12083067  0.66693976    -0.77400
C1091       C  0.79989518  0.09993498  0.66910199     1.03200
O1092       O  0.78404545  0.12084224  0.58374431    -0.84700
O1093       O  0.78121033  0.18122015  0.59894235    -0.81800
C1094       C  0.80332780  0.20542379  0.58056227     0.98800
O1095       O  0.83634825  0.21751139  0.58411237    -0.81800
O1096       O  0.89881502  0.21994584  0.60072185    -0.84400
C1097       C  0.90096722  0.19813126  0.58216637     1.03200
O1098       O  0.87996626  0.16490956  0.58553392    -0.77200
O1099       O  0.81905199  0.10178725  0.60120748    -0.77400
C1100       C  0.79561770  0.09939627  0.58181808     1.03200
Cr1101     Cr  0.78543653  0.14435760  0.62429673     1.93700
Cr1102     Cr  0.85687971  0.21513631  0.62522648     1.93200
Cr1103     Cr  0.85575938  0.14384762  0.62616956     1.39100
O1104       O  0.83270060  0.16780869  0.62517285    -1.22500
C1105       C  0.97603206  0.25915030  0.52541355    -0.13700
C1106       C  0.97988351  0.23411638  0.50741106     0.16700
C1107       C  0.95795636  0.19740520  0.51411024     0.03000
C1108       C  0.93284959  0.18642116  0.53868294    -0.12200
C1109       C  0.92882020  0.21140709  0.55692244    -0.03300
C1110       C  0.95109014  0.24837430  0.55006847     0.02200
C1111       C  0.50857621  0.24719468  0.98317282     0.09000
N1112       N  0.96022820  0.17098404  0.99554354     0.65400
H1113       H  0.91605769  0.15793905  0.54320366     0.18300
N1114       N  0.94934558  0.27547795  0.56805135     0.75900
H1115       H  0.99334993  0.28757092  0.52082401     0.09800
C1116       C  0.51019167  0.26987550  0.95849520     0.03500
C1117       C  0.53977966  0.28539373  0.93827426    -0.05200
C1118       C  0.56802885  0.27842848  0.94164984    -0.23600
C1119       C  0.56613039  0.25525700  0.96623514     0.12800
C1120       C  0.53647784  0.23985149  0.98659753    -0.12700
N1121       N  0.98151735  0.27670519  0.95329011     0.64400
H1122       H  0.54012735  0.30246331  0.91924512     0.12300
N1123       N  0.59460007  0.24822130  0.97169430     0.61100
H1124       H  0.53583641  0.22300402  0.50598169     0.08400
O1125       O  0.94157027  0.29656078  0.55428631    -0.40400
O1126       O  0.96290427  0.28317820  0.59546487    -0.39600
O1127       O  0.96724249  0.14905233  0.50865518    -0.39600
O1128       O  0.95176756  0.16730725  0.96657342    -0.37300
O1129       O  0.62343213  0.27197342  0.98415824    -0.38200
O1130       O  0.58931806  0.21699050  0.96789876    -0.34300
O1131       O  0.98760628  0.30846652  0.95295084    -0.35700
O1132       O  0.95086756  0.25131799  0.94582833    -0.40000
C1133       C  0.51319835  0.24089447  0.78520767    -0.13700
C1134       C  0.51520394  0.26375304  0.76085592     0.16700
C1135       C  0.54476266  0.29872048  0.75919712     0.03000
C1136       C  0.57183431  0.31044315  0.78208570    -0.12200
C1137       C  0.56975010  0.28785647  0.80701812    -0.03300
C1138       C  0.53993475  0.25258191  0.80835712     0.02200
C1139       C  0.98645532  0.25014855  0.73695311     0.09000
N1140       N  0.54722671  0.32271704  0.73472286     0.65400
H1141       H  0.59441865  0.33754269  0.78048881     0.18300
N1142       N  0.53566771  0.22866178  0.83358421     0.75300
H1143       H  0.49041169  0.21386238  0.78645105     0.09800
C1144       C  0.98977798  0.23559106  0.70828525     0.03500
C1145       C  0.96129187  0.22079622  0.68680809    -0.05200
C1146       C  0.92922774  0.22022901  0.69343128    -0.23600
C1147       C  0.92612324  0.23526538  0.72212817     0.12800
C1148       C  0.95476796  0.25011397  0.74360399    -0.12700
N1149       N  0.52175201  0.23515041  0.70101170     0.64400
H1150       H  0.96436056  0.20977518  0.66473455     0.12300
N1151       N  0.89356565  0.23408045  0.73046500     0.61100
H1152       H  0.95202897  0.26099210  0.76589427     0.08400
O1153       O  0.53887512  0.20175329  0.82814256    -0.40400
O1154       O  0.52413319  0.23176531  0.86014175    -0.39600
O1155       O  0.52831578  0.33725389  0.73620713    -0.39600
O1156       O  0.07145104  0.33294394  0.71402184    -0.37300
O1157       O  0.86722080  0.20515298  0.74012933    -0.38200
O1158       O  0.89260737  0.26269768  0.73202494    -0.34300
O1159       O  0.52561243  0.20978027  0.71088199    -0.35700
O1160       O  0.54357414  0.25706048  0.68112816    -0.40000
C1161       C  0.73700053  0.01619539  0.71617120    -0.13700
C1162       C  0.75850971  0.01935931  0.74215063     0.16700
C1163       C  0.79329970  0.04907137  0.74440672     0.03000
C1164       C  0.80636109  0.07500466  0.72043719    -0.12200
C1165       C  0.78507377  0.07189807  0.69404280    -0.03300
C1166       C  0.74988550  0.04196720  0.69210824     0.02200
C1167       C  0.74486784  0.49007191  0.76556137     0.09000
N1168       N  0.81552431  0.05317772  0.77100235     0.65400
H1169       H  0.83324998  0.09782248  0.72264861     0.18300
N1170       N  0.72736380  0.03647714  0.66534075     0.75900
H1171       H  0.71076688  0.49229282  0.71347115     0.09800
C1172       C  0.72243375  0.48827633  0.79032791     0.03500
C1173       C  0.70818539  0.45913918  0.81113812    -0.05200
C1174       C  0.71581799  0.43129475  0.80770279    -0.23600
C1175       C  0.73786613  0.43287634  0.78219418     0.12800
C1176       C  0.75246757  0.46248292  0.76172796    -0.12700
N1177       N  0.71410699  0.51601347  0.79465601     0.64400
H1178       H  0.69148936  0.45871809  0.83046821     0.12300
N1179       N  0.74468643  0.40430456  0.77594524     0.61100
H1180       H  0.76903858  0.46348623  0.74202890     0.08400
O1181       O  0.70186875  0.54120059  0.66683039    -0.40400
O1182       O  0.73039706  0.02169701  0.64071396    -0.39600
O1183       O  0.84043004  0.04630262  0.76822212    -0.39600
O1184       O  0.81260922  0.06707487  0.79626812    -0.37300
O1185       O  0.71887709  0.37302852  0.77104886    -0.38200
O1186       O  0.77612442  0.41132369  0.76996569    -0.34300
O1187       O  0.68345918  0.51050981  0.78739611    -0.35700
O1188       O  0.73537846  0.04470784  0.80708808    -0.40000
C1189       C  0.77407968  0.01588069  0.53441648    -0.13700
C1190       C  0.75317214  0.01745563  0.50987365     0.16700
C1191       C  0.74608788  0.04574147  0.50892804     0.03000
C1192       C  0.75981683  0.07195647  0.53267695    -0.12200
C1193       C  0.78095256  0.07065294  0.55745377    -0.03300
C1194       C  0.78781862  0.04191087  0.55823385     0.02200
C1195       C  0.73826076  0.48863853  0.98596044     0.09000
N1196       N  0.72560595  0.54846707  0.48365576     0.65400
H1197       H  0.75439372  0.09381330  0.53134015     0.18300
N1198       N  0.80775502  0.03805242  0.58343002     0.75900
H1199       H  0.77949926  0.99398382  0.03520903     0.09800
C1200       C  0.76069434  0.48546141  0.96386275     0.03500
C1201       C  0.74658267  0.45629165  0.94314887    -0.05200
C1202       C  0.71004827  0.42986759  0.94382400    -0.23600
C1203       C  0.68765206  0.43291500  0.96652352     0.12800
C1204       C  0.70190678  0.46243780  0.98707086    -0.12700
N1205       N  0.79764118  0.01234108  0.96167719     0.64400
H1206       H  0.76440188  0.45485703  0.92594063     0.12300
N1207       N  0.65080342  0.40589461  0.96973325     0.61100
H1208       H  0.68473530  0.46431968  0.50475700     0.08400
O1209       O  0.83891498  0.04315035  0.07769764    -0.40400
O1210       O  0.79271652  0.02497542  0.60959709    -0.39600
O1211       O  0.69538768  0.54502270  0.48908267    -0.39600
O1212       O  0.73906957  0.55732331  0.45632117    -0.37300
O1213       O  0.64256456  0.37599870  0.98179617    -0.38200
O1214       O  0.62665491  0.41332383  0.46464709    -0.34300
O1215       O  0.82137612  0.00442764  0.96761669    -0.35700
O1216       O  0.80664658  0.04321054  0.95155214    -0.40000
C1217       C  0.79871769  0.26479851  0.51585500    -0.13700
C1218       C  0.76176078  0.25110472  0.51412912     0.16700
C1219       C  0.73868208  0.22202778  0.53338547     0.03000
C1220       C  0.75278269  0.20699771  0.55400157    -0.12200
C1221       C  0.78991310  0.22061111  0.55614547    -0.03300
C1222       C  0.81303961  0.24971001  0.53634979     0.02200
C1223       C  0.74727211  0.26504316  0.98995740     0.09000
N1224       N  0.70089004  0.20812905  0.53273457     0.65400
H1225       H  0.73437718  0.18491594  0.56895100     0.18300
N1226       N  0.85090091  0.26391367  0.53622877     0.75900
H1227       H  0.81647546  0.28665303  0.00038526     0.09800
C1228       C  0.75302797  0.30001613  0.99165058     0.03500
C1229       C  0.73965488  0.31250490  0.96771557    -0.05200
C1230       C  0.72053426  0.29056837  0.94186983    -0.23600
C1231       C  0.71580522  0.25575110  0.93985754     0.12800
C1232       C  0.72868937  0.24324093  0.96410903    -0.12700
N1233       N  0.77142400  0.32262177  0.01805295     0.64400
H1234       H  0.74359199  0.33926347  0.96977657     0.12300
N1235       N  0.69958662  0.23341743  0.91272004     0.61100
H1236       H  0.72520665  0.21662444  0.46223394     0.08400
O1237       O  0.87177181  0.29660518  0.04208101    -0.40400
O1238       O  0.86341322  0.24560345  0.52470979    -0.39600
O1239       O  0.67989933  0.17598699  0.52487865    -0.39600
O1240       O  0.68832129  0.22720518  0.54218668    -0.37300
O1241       O  0.71521726  0.24233604  0.88623274    -0.38200
O1242       O  0.67230529  0.20273970  0.91602975    -0.34300
O1243       O  0.80169753  0.35027574  0.01420636    -0.35700
O1244       O  0.75614348  0.31641866  0.54470612    -0.40000
C1245       C  0.74501451  0.20616616  0.73860216    -0.13700
C1246       C  0.75013468  0.24057880  0.73413657     0.16700
C1247       C  0.77087587  0.26138180  0.70835553     0.03000
C1248       C  0.78631576  0.24767848  0.68779501    -0.12200
C1249       C  0.78101998  0.21309405  0.69194720    -0.03300
C1250       C  0.76029670  0.19230141  0.71791785     0.02200
C1251       C  0.73642561  0.25567995  0.75810882     0.09000
N1252       N  0.77555204  0.29604338  0.70226451     0.65400
H1253       H  0.80165534  0.26392339  0.66776430     0.18300
N1254       N  0.75573889  0.15777702  0.72438298     0.75900
H1255       H  0.72996824  0.19037095  0.75894693     0.09800
C1256       C  0.69988473  0.23853353  0.76600199     0.03500
C1257       C  0.68829415  0.25283321  0.78980053    -0.05200
C1258       C  0.71253645  0.28410565  0.80632657    -0.23600
C1259       C  0.74944117  0.30087049  0.79867837     0.12800
C1260       C  0.76076397  0.28671036  0.77453695    -0.12700
N1261       N  0.67418303  0.20696754  0.74960116     0.64400
H1262       H  0.65993032  0.23929815  0.79523508     0.12300
N1263       N  0.77597663  0.33174106  0.81542031     0.61100
H1264       H  0.78912725  0.29952880  0.76917163     0.08400
O1265       O  0.72488660  0.13033173  0.72370830    -0.40400
O1266       O  0.78190515  0.15517052  0.73410451    -0.39600
O1267       O  0.80660737  0.32288551  0.69950795    -0.39600
O1268       O  0.74868552  0.29932844  0.69685057    -0.37300
O1269       O  0.78449675  0.32820804  0.84325610    -0.38200
O1270       O  0.79623687  0.36004464  0.80028032    -0.34300
O1271       O  0.65602145  0.17800445  0.76456958    -0.35700
O1272       O  0.66752685  0.20869223  0.72073005    -0.40000
O1273       O  0.71799323  0.89951005  0.40053644    -0.84700
O1274       O  0.71673834  0.83707028  0.41537656    -0.81800
C1275       C  0.70506705  0.80395727  0.41789210     0.98700
O1276       O  0.68053027  0.78205921  0.39964376    -0.81800
O1277       O  0.61937812  0.78315721  0.41565503    -0.84400
C1278       C  0.59781671  0.79448938  0.41832912     1.03300
O1279       O  0.60023210  0.81866811  0.39985625    -0.77200
O1280       O  0.66307881  0.87956687  0.41648112    -0.77400
C1281       C  0.69618142  0.90106495  0.41948926     1.03200
O1282       O  0.71495250  0.88222916  0.33457693    -0.84700
O1283       O  0.71986885  0.82298704  0.34949095    -0.81800
C1284       C  0.69855444  0.79840090  0.33100898     0.98800
O1285       O  0.66525738  0.78516024  0.33412298    -0.81800
O1286       O  0.60133419  0.78026089  0.34981498    -0.84400
C1287       C  0.59838543  0.80173048  0.33141586     1.03200
O1288       O  0.61897893  0.83502875  0.33447862    -0.77200
O1289       O  0.67801001  0.89920299  0.35101220    -0.77400
C1290       C  0.70191497  0.90235149  0.33190032     1.03200
Cr1291     Cr  0.71370235  0.85852924  0.37500524     1.93700
Cr1292     Cr  0.64343013  0.78635690  0.37486211     1.93200
Cr1293     Cr  0.64197759  0.85635715  0.37546422     1.39100
O1294       O  0.66638874  0.83371814  0.37516107    -1.22500
O1295       O  0.77903029  0.60226379  0.14948377    -0.84700
O1296       O  0.78294874  0.66578943  0.16484150    -0.81800
C1297       C  0.79581264  0.69903161  0.16797846     0.98700
O1298       O  0.82023436  0.72067391  0.14951540    -0.81800
O1299       O  0.87943032  0.71694903  0.16649775    -0.84400
C1300       C  0.90021974  0.70478818  0.16961517     1.03300
O1301       O  0.89776005  0.68061219  0.15115788    -0.77200
O1302       O  0.83322649  0.62084845  0.16698014    -0.77400
C1303       C  0.79986654  0.59995340  0.16912325     1.03200
O1304       O  0.78409124  0.62086120  0.08372938    -0.84700
O1305       O  0.78123017  0.68122555  0.09893242    -0.81800
C1306       C  0.80335401  0.70543190  0.08055957     0.98800
O1307       O  0.83637271  0.71751762  0.08411879    -0.81800
O1308       O  0.89882584  0.71993646  0.10074240    -0.84400
C1309       C  0.90098081  0.69811739  0.08219392     1.03200
O1310       O  0.87998563  0.66489415  0.08557071    -0.77200
O1311       O  0.81905362  0.60177479  0.10124107    -0.77400
C1312       C  0.79565878  0.59940990  0.08181686     1.03200
Cr1313     Cr  0.78544443  0.64435800  0.12428381     1.93700
Cr1314     Cr  0.85688963  0.71513514  0.12523913     1.93200
Cr1315     Cr  0.85575769  0.64384109  0.12620455     1.39100
O1316       O  0.83270738  0.66780855  0.12518338    -1.22500
C1317       C  0.97605737  0.75914589  0.02545287    -0.13700
C1318       C  0.97988514  0.73411388  0.00742472     0.16700
C1319       C  0.95793543  0.69739952  0.01410035     0.03000
C1320       C  0.93283315  0.68641025  0.03867797    -0.12200
C1321       C  0.92882908  0.71139431  0.05694441    -0.03300
C1322       C  0.95111861  0.74836432  0.05011086     0.02200
C1323       C  0.50856504  0.74719468  0.48317495     0.09000
N1324       N  0.96018160  0.67098393  0.49550681     0.65400
H1325       H  0.91602375  0.65792633  0.04318029     0.18300
N1326       N  0.94939870  0.77546503  0.06812008     0.75900
H1327       H  0.99339077  0.78756807  0.02088089     0.09800
C1328       C  0.51019641  0.76989531  0.45850883     0.03500
C1329       C  0.53978543  0.78540852  0.43828818    -0.05200
C1330       C  0.56802029  0.77841959  0.44165223    -0.23600
C1331       C  0.56610644  0.75523036  0.46622706     0.12800
C1332       C  0.53645317  0.73982976  0.48658894    -0.12700
N1333       N  0.98154583  0.77675698  0.45332228     0.64400
H1334       H  0.54014471  0.80249329  0.41926795     0.12300
N1335       N  0.59456013  0.74816818  0.47167486     0.61100
H1336       H  0.53580524  0.72296129  0.00596671     0.08400
O1337       O  0.94158866  0.79653994  0.05438912    -0.40400
O1338       O  0.96299505  0.78316224  0.09551969    -0.39600
O1339       O  0.96716898  0.64901892  0.00858840    -0.39600
O1340       O  0.95172389  0.66733909  0.46653666    -0.37300
O1341       O  0.62339723  0.77189993  0.48414743    -0.38200
O1342       O  0.58925740  0.71693194  0.46786202    -0.34300
O1343       O  0.98765738  0.80852633  0.45299675    -0.35700
O1344       O  0.95088850  0.75138747  0.44585478    -0.40000
C1345       C  0.51321193  0.74088577  0.28519915    -0.13700
C1346       C  0.51521757  0.76375101  0.26085385     0.16700
C1347       C  0.54477805  0.79871727  0.25919683     0.03000
C1348       C  0.57185000  0.81043319  0.28208373    -0.12200
C1349       C  0.56976314  0.78784139  0.30701255    -0.03300
C1350       C  0.53994870  0.75256668  0.30834683     0.02200
C1351       C  0.98645962  0.75015392  0.23696708     0.09000
N1352       N  0.54724190  0.82272018  0.23472846     0.65400
H1353       H  0.59443467  0.83753304  0.28049054     0.18300
N1354       N  0.53568259  0.72864022  0.33356774     0.75300
H1355       H  0.49042458  0.71385369  0.28643918     0.09800
C1356       C  0.98978448  0.73560645  0.20829433     0.03500
C1357       C  0.96129638  0.72081046  0.18682012    -0.05200
C1358       C  0.92922913  0.72023352  0.19345108    -0.23600
C1359       C  0.92612329  0.73526253  0.22215127     0.12800
C1360       C  0.95476952  0.75011113  0.24362508    -0.12700
N1361       N  0.52176980  0.73518646  0.20099038     0.64400
H1362       H  0.96436548  0.70979551  0.16474306     0.12300
N1363       N  0.89356282  0.73406858  0.23049339     0.61100
H1364       H  0.95202976  0.76098232  0.26591906     0.08400
O1365       O  0.53890361  0.70174085  0.32812017    -0.40400
O1366       O  0.52413558  0.73172798  0.36012434    -0.39600
O1367       O  0.52829921  0.83722318  0.23619943    -0.39600
O1368       O  0.07148022  0.83297920  0.21405417    -0.37300
O1369       O  0.86722290  0.70513720  0.24015742    -0.38200
O1370       O  0.89259649  0.76268140  0.23205562    -0.34300
O1371       O  0.52564097  0.70981582  0.21084003    -0.35700
O1372       O  0.54358360  0.75711065  0.18111016    -0.40000
C1373       C  0.73710449  0.51597459  0.21595523    -0.13700
C1374       C  0.75848072  0.51929546  0.24208776     0.16700
C1375       C  0.79311700  0.54921938  0.24454806     0.03000
C1376       C  0.80617143  0.57520285  0.22062057    -0.12200
C1377       C  0.78502335  0.57193186  0.19407001    -0.03300
C1378       C  0.74997161  0.54181352  0.19195143     0.02200
C1379       C  0.74489650  0.99014579  0.26563829     0.09000
N1380       N  0.81522158  0.55345065  0.27127131     0.65400
H1381       H  0.83295370  0.59816447  0.22296597     0.18300
N1382       N  0.72757601  0.53622570  0.16506751     0.75900
H1383       H  0.71052120  0.99268365  0.21386465     0.09800
C1384       C  0.72215995  0.98813200  0.29021419     0.03500
C1385       C  0.70787454  0.95894395  0.31097040    -0.05200
C1386       C  0.71579420  0.93127997  0.30769097    -0.23600
C1387       C  0.73813145  0.93306855  0.28235457     0.12800
C1388       C  0.75275684  0.96272006  0.26193834    -0.12700
N1389       N  0.71363668  0.01574574  0.29445342     0.64400
H1390       H  0.69095820  0.95837048  0.33016779     0.12300
N1391       N  0.74523799  0.90466557  0.27622704     0.61100
H1392       H  0.76954680  0.96387638  0.24236759     0.08400
O1393       O  0.70140336  0.04110233  0.16745439    -0.40400
O1394       O  0.73036615  0.52088580  0.14072936    -0.39600
O1395       O  0.83976262  0.54600326  0.26885131    -0.39600
O1396       O  0.81273584  0.56817403  0.29617252    -0.37300
O1397       O  0.71960479  0.87333824  0.27115771    -0.38200
O1398       O  0.77679400  0.91190232  0.27049343    -0.34300
O1399       O  0.68268941  0.00981320  0.28782515    -0.35700
O1400       O  0.73557449  0.54455991  0.30801143    -0.40000
C1401       C  0.77411311  0.51588696  0.03442279    -0.13700
C1402       C  0.75322818  0.51747474  0.00986538     0.16700
C1403       C  0.74617879  0.54578382  0.00889743     0.03000
C1404       C  0.75990815  0.57200074  0.03264505    -0.12200
C1405       C  0.78102421  0.57068581  0.05743430    -0.03300
C1406       C  0.78787445  0.54193445  0.05822362     0.02200
C1407       C  0.73820978  0.98862309  0.48596592     0.09000
N1408       N  0.72556409  0.04845263  0.98365921     0.65400
H1409       H  0.75450144  0.59386810  0.03129746     0.18300
N1410       N  0.80783814  0.53809727  0.08340396     0.75900
H1411       H  0.77958754  0.49402927  0.53518402     0.09800
C1412       C  0.76063768  0.98550183  0.46382381     0.03500
C1413       C  0.74654071  0.95633368  0.44310865    -0.05200
C1414       C  0.71002618  0.92985608  0.44382742    -0.23600
C1415       C  0.68763621  0.93284821  0.46657042     0.12800
C1416       C  0.70187562  0.96236963  0.48711908    -0.12700
N1417       N  0.79771797  0.51224595  0.46175695     0.64400
H1418       H  0.76435294  0.95494214  0.42586523     0.12300
N1419       N  0.65081442  0.90576977  0.46982663     0.61100
H1420       H  0.68471575  0.96420631  0.00484399     0.08400
O1421       O  0.83926406  0.54372916  0.57765348    -0.40400
O1422       O  0.79270040  0.52458939  0.10943853    -0.39600
O1423       O  0.69532439  0.04496081  0.98907627    -0.39600
O1424       O  0.73904617  0.05735141  0.95633448    -0.37300
O1425       O  0.64266259  0.87587752  0.48184539    -0.38200
O1426       O  0.62660982  0.91313490  0.96481892    -0.34300
O1427       O  0.82139965  0.50426365  0.46771558    -0.35700
O1428       O  0.80679704  0.54313984  0.45164834    -0.40000
C1429       C  0.79875818  0.76481604  0.01585533    -0.13700
C1430       C  0.76180121  0.75112202  0.01412499     0.16700
C1431       C  0.73871899  0.72204217  0.03337711     0.03000
C1432       C  0.75281611  0.70700878  0.05399221    -0.12200
C1433       C  0.78994610  0.72062277  0.05614135    -0.03300
C1434       C  0.81307656  0.74972487  0.03635109     0.02200
C1435       C  0.74729213  0.76504160  0.48995369     0.09000
N1436       N  0.70092672  0.70814369  0.03272307     0.65400
H1437       H  0.73440765  0.68492450  0.06893793     0.18300
N1438       N  0.85093798  0.76392895  0.03623708     0.75900
H1439       H  0.81650021  0.78668860  0.50041740     0.09800
C1440       C  0.75304985  0.80001535  0.49164646     0.03500
C1441       C  0.73967025  0.81250203  0.46771546    -0.05200
C1442       C  0.72054155  0.79056300  0.44187374    -0.23600
C1443       C  0.71581109  0.75574495  0.43986108     0.12800
C1444       C  0.72870205  0.74323713  0.46410865    -0.12700
N1445       N  0.77145304  0.82262356  0.51804539     0.64400
H1446       H  0.74360883  0.83926115  0.46977661     0.12300
N1447       N  0.69958333  0.73340748  0.41272730     0.61100
H1448       H  0.72522367  0.71663033  0.96224343     0.08400
O1449       O  0.87177487  0.79664411  0.54218691    -0.40400
O1450       O  0.86345379  0.74562058  0.02472090    -0.39600
O1451       O  0.67993480  0.67599469  0.02488784    -0.39600
O1452       O  0.68835897  0.72722849  0.04215324    -0.37300
O1453       O  0.71520538  0.74232273  0.38623607    -0.38200
O1454       O  0.67230695  0.70272765  0.41604457    -0.34300
O1455       O  0.80173045  0.85027110  0.51419450    -0.35700
O1456       O  0.75622312  0.81648025  0.04468647    -0.40000
C1457       C  0.74501318  0.70615630  0.23860263    -0.13700
C1458       C  0.75013799  0.74057152  0.23414135     0.16700
C1459       C  0.77088222  0.76137677  0.20836236     0.03000
C1460       C  0.78631741  0.74767195  0.18779826    -0.12200
C1461       C  0.78101584  0.71308479  0.19194560    -0.03300
C1462       C  0.76029293  0.69229109  0.21791574     0.02200
C1463       C  0.73643071  0.75567217  0.25811628     0.09000
N1464       N  0.77556784  0.79604320  0.20227747     0.65400
H1465       H  0.80165869  0.76391844  0.16776910     0.18300
N1466       N  0.75573594  0.65776664  0.22437944     0.75900
H1467       H  0.72996661  0.69036004  0.25894660     0.09800
C1468       C  0.69989111  0.73852424  0.26601404     0.03500
C1469       C  0.68830318  0.75282296  0.28981568    -0.05200
C1470       C  0.71254609  0.78409718  0.30633975    -0.23600
C1471       C  0.74945079  0.80086312  0.29868792     0.12800
C1472       C  0.76077021  0.78670262  0.27454342    -0.12700
N1473       N  0.67418741  0.70695849  0.24961384     0.64400
H1474       H  0.65994000  0.73928683  0.29525260     0.12300
N1475       N  0.77599039  0.83173509  0.31542680     0.61100
H1476       H  0.78913266  0.79952048  0.26917525     0.08400
O1477       O  0.72488136  0.63032373  0.22372391    -0.40400
O1478       O  0.78190698  0.65515968  0.23408599    -0.39600
O1479       O  0.80662658  0.82288092  0.19952479    -0.39600
O1480       O  0.74870660  0.79933713  0.19686337    -0.37300
O1481       O  0.78447345  0.82821177  0.34327983    -0.38200
O1482       O  0.79630041  0.86001136  0.30027340    -0.34300
O1483       O  0.65601449  0.67799930  0.26458485    -0.35700
O1484       O  0.66754445  0.70867922  0.22073836    -0.40000
O1485       O  0.71798610  0.89951771  0.90053169    -0.84700
O1486       O  0.71674777  0.83708619  0.91537674    -0.81800
C1487       C  0.70508548  0.80397458  0.91788999     0.98700
O1488       O  0.68054412  0.78207127  0.89964813    -0.81800
O1489       O  0.61938339  0.78315349  0.91566053    -0.84400
C1490       C  0.59781971  0.79448281  0.91833573     1.03300
O1491       O  0.60023107  0.81865922  0.89986244    -0.77200
O1492       O  0.66307211  0.87956659  0.91648144    -0.77400
C1493       C  0.69617435  0.90106788  0.91948758     1.03200
O1494       O  0.71493938  0.88222730  0.83457392    -0.84700
O1495       O  0.71987625  0.82299913  0.84949476    -0.81800
C1496       C  0.69856507  0.79840652  0.83101693     0.98800
O1497       O  0.66526721  0.78516230  0.83412902    -0.81800
O1498       O  0.60133740  0.78025020  0.84981970    -0.84400
C1499       C  0.59838603  0.80171688  0.83141889     1.03200
O1500       O  0.61897218  0.83501539  0.83448389    -0.77200
O1501       O  0.67798996  0.89918972  0.85100552    -0.77400
C1502       C  0.70188916  0.90233725  0.83188693     1.03200
Cr1503     Cr  0.71370135  0.85853761  0.87500478     1.93700
Cr1504     Cr  0.64343722  0.78635674  0.87486741     1.93200
Cr1505     Cr  0.64196965  0.85634887  0.87546653     1.39100
O1506       O  0.66638806  0.83371775  0.87516453    -1.22500
O1507       O  0.77903859  0.60226017  0.64949165    -0.84700
O1508       O  0.78295436  0.66578268  0.66485575    -0.81800
C1509       C  0.79582088  0.69902492  0.66799605     0.98700
O1510       O  0.82023905  0.72066876  0.64953090    -0.81800
O1511       O  0.87944544  0.71696029  0.66649875    -0.84400
C1512       C  0.90023473  0.70479932  0.66961589     1.03300
O1513       O  0.89777061  0.68061910  0.65116310    -0.77200
O1514       O  0.83323375  0.62086594  0.66700637    -0.77400
C1515       C  0.79987382  0.59996659  0.66914300     1.03200
O1516       O  0.78410195  0.62086228  0.58374143    -0.84700
O1517       O  0.78122322  0.68121787  0.59895069    -0.81800
C1518       C  0.80334045  0.70542616  0.58057623     0.98800
O1519       O  0.83636060  0.71751425  0.58412857    -0.81800
O1520       O  0.89882022  0.71993745  0.60073790    -0.84400
C1521       C  0.90097997  0.69811570  0.58219644     1.03200
O1522       O  0.87999274  0.66489117  0.58558278    -0.77200
O1523       O  0.81905754  0.60177309  0.60126146    -0.77400
C1524       C  0.79567309  0.59941348  0.58182718     1.03200
Cr1525     Cr  0.78544908  0.64435432  0.62429640     1.93700
Cr1526     Cr  0.85689067  0.71513625  0.62524460     1.93200
Cr1527     Cr  0.85576411  0.64384446  0.62622064     1.39100
O1528       O  0.83271255  0.66781012  0.62519330    -1.22500
C1529       C  0.97603761  0.75914393  0.52543645    -0.13700
C1530       C  0.97988123  0.73411342  0.50742130     0.16700
C1531       C  0.95794748  0.69740025  0.51411137     0.03000
C1532       C  0.93284577  0.68641106  0.53868998    -0.12200
C1533       C  0.92882629  0.71139361  0.55694388    -0.03300
C1534       C  0.95109972  0.74836299  0.55009556     0.02200
C1535       C  0.50857587  0.74719935  0.98319026     0.09000
N1536       N  0.96015341  0.67098315  0.99548157     0.65400
H1537       H  0.91604946  0.65792811  0.54320352     0.18300
N1538       N  0.94936523  0.77546482  0.56809034     0.75900
H1539       H  0.99335899  0.78756550  0.52085421     0.09800
C1540       C  0.51022052  0.76992193  0.95853940     0.03500
C1541       C  0.53980676  0.78543008  0.93831596    -0.05200
C1542       C  0.56802601  0.77841491  0.94166184    -0.23600
C1543       C  0.56609881  0.75520425  0.96622192     0.12800
C1544       C  0.53644825  0.73980873  0.98658698    -0.12700
N1545       N  0.98156037  0.77677541  0.95333892     0.64400
H1546       H  0.54017583  0.80253282  0.91930809     0.12300
N1547       N  0.59453507  0.74811163  0.97165014     0.61100
H1548       H  0.53582082  0.72300072  0.50598061     0.08400
O1549       O  0.94156574  0.79653835  0.55434167    -0.40400
O1550       O  0.96295014  0.78317121  0.59549392    -0.39600
O1551       O  0.96721091  0.64903591  0.50862687    -0.39600
O1552       O  0.95169169  0.66735344  0.96651273    -0.37300
O1553       O  0.62337244  0.77181232  0.98414628    -0.38200
O1554       O  0.58921380  0.71687379  0.96779671    -0.34300
O1555       O  0.98767871  0.80854729  0.95303284    -0.35700
O1556       O  0.95090266  0.75141538  0.94585917    -0.40000
C1557       C  0.51324253  0.74085919  0.78517028    -0.13700
C1558       C  0.51523384  0.76373791  0.76084355     0.16700
C1559       C  0.54477585  0.79871580  0.75920770     0.03000
C1560       C  0.57184318  0.81043149  0.78209818    -0.12200
C1561       C  0.56977040  0.78782628  0.80700965    -0.03300
C1562       C  0.53997548  0.75253877  0.80832139     0.02200
C1563       C  0.98647916  0.75015945  0.73696055     0.09000
N1564       N  0.54722614  0.82272945  0.73475594     0.65400
H1565       H  0.59441314  0.83754124  0.78052087     0.18300
N1566       N  0.53572507  0.72859645  0.83352256     0.75300
H1567       H  0.49046875  0.71381783  0.78639379     0.09800
C1568       C  0.98980427  0.73561955  0.70828364     0.03500
C1569       C  0.96131512  0.72082664  0.68681082    -0.05200
C1570       C  0.92924706  0.72024575  0.69344789    -0.23600
C1571       C  0.92614099  0.73526716  0.72215219     0.12800
C1572       C  0.95478869  0.75011361  0.74362422    -0.12700
N1573       N  0.52178086  0.73517283  0.70098012     0.64400
H1574       H  0.96438363  0.70981694  0.66473039     0.12300
N1575       N  0.89357804  0.73406469  0.73050086     0.61100
H1576       H  0.95204908  0.76097849  0.76592188     0.08400
O1577       O  0.53900513  0.70173541  0.82805641    -0.40400
O1578       O  0.52414022  0.73163061  0.86007835    -0.39600
O1579       O  0.52831819  0.83726740  0.73627487    -0.39600
O1580       O  0.07146275  0.83299348  0.71406058    -0.37300
O1581       O  0.86723562  0.70512414  0.74014634    -0.38200
O1582       O  0.89260875  0.76267494  0.73208217    -0.34300
O1583       O  0.52562373  0.70976885  0.71078251    -0.35700
O1584       O  0.54362558  0.75713844  0.68114148    -0.40000
C1585       C  0.73726905  0.51573675  0.71572876    -0.13700
C1586       C  0.75850079  0.51922407  0.74202274     0.16700
C1587       C  0.79297206  0.54936738  0.74469177     0.03000
C1588       C  0.80601855  0.57539839  0.72080298    -0.12200
C1589       C  0.78502527  0.57194575  0.69408352    -0.03300
C1590       C  0.75012489  0.54162745  0.69177067     0.02200
C1591       C  0.74488043  0.99018904  0.76567875     0.09000
N1592       N  0.81494845  0.55373454  0.77154971     0.65400
H1593       H  0.83268194  0.59851467  0.72328872     0.18300
N1594       N  0.72788556  0.53590464  0.66473978     0.75900
H1595       H  0.71027092  0.99303479  0.71419522     0.09800
C1596       C  0.72185347  0.98796674  0.79006746     0.03500
C1597       C  0.70754270  0.95873798  0.81078018    -0.05200
C1598       C  0.71574737  0.93125552  0.80766234    -0.23600
C1599       C  0.73836339  0.93324294  0.78249623     0.12800
C1600       C  0.75300140  0.96292863  0.76211961    -0.12700
N1601       N  0.71313111  0.01545520  0.79420974     0.64400
H1602       H  0.69041321  0.95801732  0.82984640     0.12300
N1603       N  0.74576112  0.90501282  0.77650178     0.61100
H1604       H  0.77000600  0.96423343  0.74267789     0.08400
O1605       O  0.70115659  0.04140487  0.66798722    -0.40400
O1606       O  0.73085506  0.52049203  0.64053864    -0.39600
O1607       O  0.83903848  0.54560734  0.76954541    -0.39600
O1608       O  0.81298469  0.56939007  0.79602322    -0.37300
O1609       O  0.72031123  0.87363571  0.77125477    -0.38200
O1610       O  0.77743563  0.91247006  0.77102969    -0.34300
O1611       O  0.68193606  0.00913755  0.78812214    -0.35700
O1612       O  0.73578900  0.54434165  0.80911504    -0.40000
C1613       C  0.77430346  0.51601691  0.53429956    -0.13700
C1614       C  0.75321181  0.51747668  0.50986808     0.16700
C1615       C  0.74597047  0.54566016  0.50902792     0.03000
C1616       C  0.75972004  0.57187911  0.53277335    -0.12200
C1617       C  0.78104594  0.57069506  0.55743523    -0.03300
C1618       C  0.78809128  0.54207040  0.55809427     0.02200
C1619       C  0.73819214  0.98862360  0.98596722     0.09000
N1620       N  0.72589736  0.04864665  0.48345333     0.65400
H1621       H  0.75415554  0.59364519  0.53152317     0.18300
N1622       N  0.80830779  0.53837804  0.58312484     0.75900
H1623       H  0.77924297  0.49380065  0.03540443     0.09800
C1624       C  0.76060955  0.98554377  0.96378340     0.03500
C1625       C  0.74651773  0.95637488  0.94306933    -0.05200
C1626       C  0.71001840  0.92985840  0.94382597    -0.23600
C1627       C  0.68763903  0.93281030  0.96660686     0.12800
C1628       C  0.70187242  0.96233104  0.98715657    -0.12700
N1629       N  0.79776712  0.51215839  0.96184642     0.64400
H1630       H  0.76431960  0.95501583  0.92579330     0.12300
N1631       N  0.65083846  0.90568834  0.96990402     0.61100
H1632       H  0.68470943  0.96427748  0.50477539     0.08400
O1633       O  0.83869684  0.54310355  0.07809501    -0.40400
O1634       O  0.79332806  0.52464008  0.60915624    -0.39600
O1635       O  0.69565868  0.04521827  0.48872916    -0.39600
O1636       O  0.73953044  0.05756406  0.45618322    -0.37300
O1637       O  0.64275538  0.87579671  0.98188218    -0.38200
O1638       O  0.62663069  0.91326133  0.46466467    -0.34300
O1639       O  0.82139487  0.50413842  0.96793543    -0.35700
O1640       O  0.80692225  0.54303733  0.95164645    -0.40000
C1641       C  0.79871883  0.76479500  0.51586945    -0.13700
C1642       C  0.76176214  0.75110995  0.51415725     0.16700
C1643       C  0.73868794  0.72204308  0.53342585     0.03000
C1644       C  0.75279263  0.70701169  0.55403573    -0.12200
C1645       C  0.78992256  0.72061560  0.55616463    -0.03300
C1646       C  0.81304452  0.74970679  0.53636074     0.02200
C1647       C  0.74733957  0.76506104  0.98992208     0.09000
N1648       N  0.70089720  0.70815696  0.53279481     0.65400
H1649       H  0.73439063  0.68493756  0.56899380     0.18300
N1650       N  0.85090440  0.76390186  0.53622732     0.75900
H1651       H  0.81654589  0.78672005  0.00041524     0.09800
C1652       C  0.75306528  0.80002153  0.99163963     0.03500
C1653       C  0.73967967  0.81251073  0.96771624    -0.05200
C1654       C  0.72057636  0.79058641  0.94185934    -0.23600
C1655       C  0.71588384  0.75578523  0.93981934     0.12800
C1656       C  0.72878029  0.74327419  0.96405903    -0.12700
N1657       N  0.77143886  0.82261102  0.01805673     0.64400
H1658       H  0.74358978  0.83925737  0.96979631     0.12300
N1659       N  0.69968882  0.73347047  0.91266658     0.61100
H1660       H  0.72511934  0.71658167  0.46231123     0.08400
O1661       O  0.87179776  0.79666681  0.04222205    -0.40400
O1662       O  0.86340469  0.74557673  0.52471793    -0.39600
O1663       O  0.67988869  0.67599967  0.52499425    -0.39600
O1664       O  0.68834891  0.72726135  0.54221777    -0.37300
O1665       O  0.71531592  0.74243670  0.88617964    -0.38200
O1666       O  0.67244075  0.70276623  0.91595921    -0.34300
O1667       O  0.80170429  0.85028114  0.01422837    -0.35700
O1668       O  0.75625208  0.81653561  0.54467954    -0.40000
C1669       C  0.74501348  0.70614388  0.73861618    -0.13700
C1670       C  0.75016148  0.74056985  0.73416799     0.16700
C1671       C  0.77092900  0.76138510  0.70840280     0.03000
C1672       C  0.78635876  0.74767707  0.68783720    -0.12200
C1673       C  0.78103097  0.71307823  0.69196903    -0.03300
C1674       C  0.76028937  0.69227610  0.71792796     0.02200
C1675       C  0.73645160  0.75566869  0.75814193     0.09000
N1676       N  0.77564549  0.79606656  0.70233312     0.65400
H1677       H  0.80171707  0.76393210  0.66781810     0.18300
N1678       N  0.75570710  0.65773895  0.72437829     0.75900
H1679       H  0.72995042  0.69033977  0.75895098     0.09800
C1680       C  0.69991004  0.73852474  0.76603232     0.03500
C1681       C  0.68832016  0.75282521  0.78983056    -0.05200
C1682       C  0.71256160  0.78409901  0.80635585    -0.23600
C1683       C  0.74946857  0.80086032  0.79871204     0.12800
C1684       C  0.76079006  0.78669551  0.77457339    -0.12700
N1685       N  0.67420616  0.70696331  0.74962655     0.64400
H1686       H  0.65995547  0.73929251  0.79526162     0.12300
N1687       N  0.77600855  0.83173353  0.81545005     0.61100
H1688       H  0.78915397  0.79950889  0.76921178     0.08400
O1689       O  0.72484373  0.63030914  0.72371282    -0.40400
O1690       O  0.78186309  0.65510745  0.73408773    -0.39600
O1691       O  0.80671531  0.82289021  0.69959422    -0.39600
O1692       O  0.74880157  0.79938904  0.69691685    -0.37300
O1693       O  0.78446251  0.82821749  0.84331644    -0.38200
O1694       O  0.79635522  0.85999015  0.80028760    -0.34300
O1695       O  0.65600151  0.67801054  0.76459853    -0.35700
O1696       O  0.66759840  0.70868248  0.72074117    -0.40000
loop_ 
_geom_bond_atom_site_label_1 
_geom_bond_atom_site_label_2 
_geom_bond_distance 
_geom_bond_site_symmetry_2 
_ccdc_geom_bond_type 
O1          Cr19   2.002       .  S
O1            C9   1.266       .  A
O2          Cr19   1.975       .  S
O2            C3   1.260       .  A
C3            O4   1.265       .  A
C3          C170   1.483       .  S
O4          Cr20   2.001       .  S
O5          Cr20   1.982       .  S
O5            C6   1.261       .  A
C6            O7   1.266       .  A
C6           C58   1.488       .  S
O7          Cr21   2.003       .  S
O8          Cr21   1.976       .  S
O8            C9   1.260       .  A
C9          C142   1.487       .  S
O10         Cr19   1.976       .  S
O10          C18   1.260       .  A
O11         Cr19   2.004       .  S
O11          C12   1.264       .  A
C12          O13   1.261       .  A
C12         C198   1.489       .  S
O13         Cr20   1.976       .  S
O14         Cr20   2.004       .  S
O14          C15   1.265       .  A
C15          O16   1.261       .  A
C15          C77   1.483       .  S
O16         Cr21   1.975       .  S
O17         Cr21   2.004       .  S
O17          C18   1.265       .  A
C18         C114   1.487       .  S
Cr19         O22   1.769       .  S
Cr20         O22   1.769       .  S
Cr21         O22   1.768       .  S
O23         Cr41   2.003       .  S
O23          C31   1.265       .  A
O24         Cr41   1.976       .  S
O24          C25   1.260       .  A
C25          O26   1.266       .  A
C25         C189   1.483       .  S
O26         Cr42   2.005       .  S
O27         Cr42   1.976       .  S
O27          C28   1.259       .  A
C28          O29   1.265       .  A
C28          C86   1.478       .  S
O29         Cr43   2.005       .  S
O30         Cr43   1.981       .  S
O30          C31   1.262       .  A
C31         C105   1.485       .  S
O32         Cr41   1.976       .  S
O32          C40   1.261       .  A
O33         Cr41   2.004       .  S
O33          C34   1.266       .  A
C34          O35   1.259       .  A
C34         C161   1.488       .  S
O35         Cr42   1.974       .  S
O36         Cr42   2.009       .  S
O36          C37   1.266       .  A
C37          O38   1.262       .  A
C37          C49   1.491       .  S
O38         Cr43   1.977       .  S
O39         Cr43   2.005       .  S
O39          C40   1.265       .  A
C40         C133   1.486       .  S
Cr41         O44   1.767       .  S
Cr42         O44   1.767       .  S
Cr43         O44   1.767       .  S
C45          C46   1.401       .  A
C45          C50   1.400       .  A
C45          H55   1.086       .  S
C46        C1111   1.484   1_554  S
C46          C47   1.407       .  A
C47          C48   1.401       .  A
C47         N264   1.430   1_554  S
C48          C49   1.409       .  A
C48          H53   1.086       .  S
C49          C50   1.419       .  A
C50          N54   1.431       .  S
C51        C1106   1.484   1_455  S
C51          C56   1.408       .  A
C51          C60   1.404       .  A
N52         C259   1.430       .  S
N52          O68   1.262       .  A
N52         O279   1.262       .  A
N54          O65   1.262       .  A
N54          O66   1.262       .  A
C56          C57   1.398       .  A
C56         N909   1.431   1_455  S
C57          C58   1.407       .  A
C57          H62   1.086       .  S
C58          C59   1.416       .  A
C59          C60   1.403       .  A
C59          N63   1.430       .  S
C60         H276   1.086       .  S
N61         C904   1.431       .  S
N61          O71   1.262       .  A
N61          O72   1.262       .  A
N63          O69   1.262       .  A
N63          O70   1.262       .  A
H64         C272   1.086   1_554  S
O67         N264   1.262   1_554  A
C73          C74   1.398       .  A
C73          C78   1.398       .  A
C73          H83   1.085   1_455  S
C74         C927   1.472   1_455  S
C74          C75   1.406       .  A
C75          C76   1.400       .  A
C75          N80   1.429       .  S
C76          C77   1.407       .  A
C76          H81   1.085       .  S
C77          C78   1.417       .  A
C78          N82   1.430       .  S
C79         C922   1.472       .  S
C79          C84   1.405       .  A
C79          C88   1.401       .  A
N80          O95   1.262       .  A
N80         O944   1.262       .  A
N82          O93   1.262       .  A
N82          O94   1.262       .  A
C84          C85   1.397       .  A
C84         N937   1.429       .  S
C85          C86   1.405       .  A
C85          H90   1.085       .  S
C86          C87   1.413       .  A
C87          C88   1.401       .  A
C87          N91   1.430       .  S
C88          H92   1.085       .  S
N89         C932   1.429   1_455  S
N89          O99   1.262       .  A
N89         O100   1.262       .  A
N91          O97   1.262       .  A
N91          O98   1.262       .  A
O96         N928   1.262       .  A
C101        C102   1.398       .  A
C101        C106   1.399       .  A
C101        H535   1.086   1_545  S
C102        C531   1.475   1_545  S
C102        C103   1.405       .  A
C103        C104   1.400       .  A
C103        N108   1.428       .  S
C104        C105   1.407       .  A
C104        H109   1.085       .  S
C105        C106   1.418       .  A
C106        N110   1.430       .  S
C107        C526   1.474       .  S
C107        C112   1.403       .  A
C107        C116   1.399       .  A
N108        O123   1.261       .  A
N108        O124   1.262       .  A
N110        O122   1.262       .  A
N110        O545   1.262       .  A
H111        C525   1.086       .  S
C112        C113   1.398       .  A
C112        N117   1.429       .  S
C113        C114   1.409       .  A
C113        H118   1.085       .  S
C114        C115   1.419       .  A
C115        C116   1.403       .  A
C115        N119   1.434       .  S
C116        H120   1.086       .  S
N117        O127   1.262       .  A
N117        O552   1.262       .  A
N119        O125   1.263       .  A
N119        O126   1.262       .  A
O121        N534   1.262       .  A
O128        N541   1.262       .  A
C129        C130   1.398       .  A
C129        C134   1.398       .  A
C129        H351   1.086   1_545  S
C130        C771   1.475   1_544  S
C130        C131   1.405       .  A
C131        C132   1.401       .  A
C131        N560   1.429   1_554  S
C132        C133   1.408       .  A
C132        H137   1.085       .  S
C133        C134   1.418       .  A
C134        N138   1.430       .  S
C135        C766   1.475       .  S
C135        C140   1.404       .  A
C135        C144   1.401       .  A
N136        C555   1.429   1_556  S
N136        O151   1.262       .  A
N136        O152   1.262       .  A
N138        O150   1.262       .  A
N138        O361   1.262       .  A
H139        C341   1.086   1_565  S
C140        C141   1.396       .  A
C140        N569   1.430       .  S
C141        C142   1.408       .  A
C141        H146   1.085       .  S
C142        C143   1.417       .  A
C143        C144   1.402       .  A
C143        N147   1.431       .  S
C144        H360   1.086       .  S
N145        C564   1.430   1_545  S
N145        O155   1.262       .  A
N145        O156   1.262       .  A
N147        O153   1.262       .  A
N147        O366   1.262       .  A
H148        C356   1.086   1_554  S
O149        N350   1.262       .  A
O154        N359   1.262       .  A
C157        C158   1.400       .  A
C157        C162   1.402       .  A
C157        H379   1.086       .  S
C158        C375   1.476   1_554  S
C158        C159   1.404       .  A
C159        C160   1.397       .  A
C159        N164   1.431       .  S
C160        C161   1.408       .  A
C160        H165   1.085       .  S
C161        C162   1.419       .  A
C162        N166   1.431       .  S
C163        C370   1.476       .  S
C163        C168   1.406       .  A
C163        C172   1.399       .  A
N164        O179   1.262       .  A
N164        O180   1.262       .  A
N166        O178   1.262       .  A
N166        O389   1.262       .  A
H167        C369   1.086       .  S
C168        C169   1.400       .  A
C168        N173   1.429       .  S
C169        C170   1.407       .  A
C169        H174   1.085       .  S
C170        C171   1.417       .  A
C171        C172   1.398       .  A
C171        N175   1.432       .  S
C172        H388   1.086       .  S
N173        O183   1.262       .  A
N173        O396   1.262       .  A
N175        O181   1.263       .  A
N175        O182   1.262       .  A
H176        C384   1.086       .  S
O177        N378   1.262       .  A
O184        N385   1.262       .  A
C185        C186   1.403       .  A
C185        C190   1.401       .  A
C185        H195   1.086       .  S
C186        C191   1.483       .  S
C186        C187   1.409       .  A
C187        C188   1.398       .  A
C187        N192   1.432       .  S
C188        C189   1.406       .  A
C188        H193   1.086       .  S
C189        C190   1.415       .  A
C190        N194   1.431       .  S
C191        C196   1.407       .  A
C191        C200   1.401       .  A
N192        O207   1.262       .  A
N192        O208   1.262       .  A
N194        O205   1.262       .  A
N194        O206   1.262       .  A
C196        C197   1.400       .  A
C196        N201   1.430       .  S
C197        C198   1.408       .  A
C197        H202   1.086       .  S
C198        C199   1.419       .  A
C199        C200   1.400       .  A
C199        N203   1.432       .  S
C200        H204   1.086       .  S
N201        O211   1.262       .  A
N201        O212   1.262       .  A
N203        O209   1.262       .  A
N203        O210   1.262       .  A
O213       Cr231   2.002       .  S
O213        C221   1.266       .  A
O214       Cr231   1.975       .  S
O214        C215   1.260       .  A
C215        O216   1.265       .  A
C215        C382   1.483       .  S
O216       Cr232   2.001       .  S
O217       Cr232   1.981       .  S
O217        C218   1.261       .  A
C218        O219   1.266       .  A
C218        C270   1.488       .  S
O219       Cr233   2.003       .  S
O220       Cr233   1.976       .  S
O220        C221   1.260       .  A
C221        C354   1.487       .  S
O222       Cr231   1.976       .  S
O222        C230   1.260       .  A
O223       Cr231   2.004       .  S
O223        C224   1.264       .  A
C224        O225   1.261       .  A
C224        C410   1.489       .  S
O225       Cr232   1.976       .  S
O226       Cr232   2.004       .  S
O226        C227   1.265       .  A
C227        O228   1.261       .  A
C227        C289   1.483       .  S
O228       Cr233   1.975       .  S
O229       Cr233   2.004       .  S
O229        C230   1.265       .  A
C230        C326   1.487       .  S
Cr231       O234   1.769       .  S
Cr232       O234   1.769       .  S
Cr233       O234   1.768       .  S
O235       Cr253   2.003       .  S
O235        C243   1.265       .  A
O236       Cr253   1.976       .  S
O236        C237   1.260       .  A
C237        O238   1.266       .  A
C237        C401   1.483       .  S
O238       Cr254   2.005       .  S
O239       Cr254   1.976       .  S
O239        C240   1.259       .  A
C240        O241   1.265       .  A
C240        C298   1.478       .  S
O241       Cr255   2.005       .  S
O242       Cr255   1.981       .  S
O242        C243   1.262       .  A
C243        C317   1.485       .  S
O244       Cr253   1.976       .  S
O244        C252   1.261       .  A
O245       Cr253   2.004       .  S
O245        C246   1.266       .  A
C246        O247   1.259       .  A
C246        C373   1.488       .  S
O247       Cr254   1.974       .  S
O248       Cr254   2.009       .  S
O248        C249   1.266       .  A
C249        O250   1.262       .  A
C249        C261   1.491       .  S
O250       Cr255   1.977       .  S
O251       Cr255   2.005       .  S
O251        C252   1.265       .  A
C252        C345   1.486       .  S
Cr253       O256   1.767       .  S
Cr254       O256   1.767       .  S
Cr255       O256   1.767       .  S
C257        C258   1.401       .  A
C257        C262   1.400       .  A
C257        H267   1.087       .  S
C258        C899   1.484       .  S
C258        C259   1.407       .  A
C259        C260   1.401       .  A
C260        C261   1.409       .  A
C260        H265   1.086       .  S
C261        C262   1.419       .  A
C262        N266   1.431       .  S
C263        C894   1.484   1_456  S
C263        C268   1.408       .  A
C263        C272   1.404       .  A
N264        O280   1.262       .  A
N266        O277   1.262       .  A
N266        O278   1.262       .  A
C268        C269   1.398       .  A
C268       N1121   1.431   1_455  S
C269        C270   1.407       .  A
C269        H274   1.086       .  S
C270        C271   1.416       .  A
C271        C272   1.403       .  A
C271        N275   1.430       .  S
N273       C1116   1.431       .  S
N273        O283   1.262       .  A
N273        O284   1.262       .  A
N275        O281   1.262       .  A
N275        O282   1.262       .  A
C285        C286   1.398       .  A
C285        C290   1.398       .  A
C285        H295   1.085   1_455  S
C286       C1139   1.473   1_455  S
C286        C287   1.406       .  A
C287        C288   1.400       .  A
C287        N292   1.429       .  S
C288        C289   1.407       .  A
C288        H293   1.085       .  S
C289        C290   1.417       .  A
C290        N294   1.430       .  S
C291       C1134   1.473       .  S
C291        C296   1.405       .  A
C291        C300   1.401       .  A
N292        O307   1.262       .  A
N292       O1156   1.262       .  A
N294        O305   1.262       .  A
N294        O306   1.262       .  A
C296        C297   1.397       .  A
C296       N1149   1.429       .  S
C297        C298   1.405       .  A
C297        H302   1.085       .  S
C298        C299   1.413       .  A
C299        C300   1.401       .  A
C299        N303   1.430       .  S
C300        H304   1.085       .  S
N301       C1144   1.429   1_455  S
N301        O311   1.262       .  A
N301        O312   1.262       .  A
N303        O309   1.262       .  A
N303        O310   1.262       .  A
O308       N1140   1.262       .  A
C313        C314   1.398       .  A
C313        C318   1.399       .  A
C313        H747   1.086   1_545  S
C314        C743   1.475   1_545  S
C314        C315   1.405       .  A
C315        C316   1.400       .  A
C315        N320   1.428       .  S
C316        C317   1.407       .  A
C316        H321   1.085       .  S
C317        C318   1.418       .  A
C318        N322   1.430       .  S
C319        C738   1.474       .  S
C319        C324   1.403       .  A
C319        C328   1.399       .  A
N320        O335   1.261       .  A
N320        O336   1.262       .  A
N322        O757   1.262       .  A
N322        O334   1.262       .  A
H323        C737   1.086       .  S
C324        C325   1.398       .  A
C324        N329   1.429       .  S
C325        C326   1.409       .  A
C325        H330   1.085       .  S
C326        C327   1.419       .  A
C327        C328   1.403       .  A
C327        N331   1.434       .  S
C328        H332   1.086       .  S
N329        O339   1.262       .  A
N329        O764   1.262       .  A
N331        O337   1.263       .  A
N331        O338   1.262       .  A
O333        N746   1.262       .  A
O340        N753   1.262       .  A
C341        C342   1.398       .  A
C341        C346   1.398       .  A
C342        C559   1.475   1_545  S
C342        C343   1.405       .  A
C343        C344   1.401       .  A
C343        N772   1.429       .  S
C344        C345   1.408       .  A
C344        H349   1.085       .  S
C345        C346   1.418       .  A
C346        N350   1.430       .  S
C347        C554   1.475   1_556  S
C347        C352   1.404       .  A
C347        C356   1.401       .  A
N348        C767   1.429       .  S
N348        O363   1.262       .  A
N348        O364   1.262       .  A
N350        O362   1.262       .  A
C352        C353   1.396       .  A
C352        N781   1.430       .  S
C353        C354   1.408       .  A
C353        H358   1.085       .  S
C354        C355   1.417       .  A
C355        C356   1.402       .  A
C355        N359   1.431       .  S
N357        C776   1.430   1_545  S
N357        O367   1.262       .  A
N357        O368   1.262       .  A
N359        O365   1.262       .  A
C369        C370   1.400       .  A
C369        C374   1.402       .  A
C370        C371   1.404       .  A
C371        C372   1.397       .  A
C371        N376   1.431       .  S
C372        C373   1.408       .  A
C372        H377   1.085       .  S
C373        C374   1.419       .  A
C374        N378   1.431       .  S
C375        C380   1.406       .  A
C375        C384   1.399       .  A
N376        O391   1.262       .  A
N376        O392   1.262       .  A
N378        O390   1.262       .  A
C380        C381   1.400       .  A
C380        N385   1.429   1_556  S
C381        C382   1.407       .  A
C381        H386   1.085       .  S
C382        C383   1.417       .  A
C383        C384   1.398       .  A
C383        N387   1.432       .  S
N385        O395   1.262       .  A
N387        O393   1.263       .  A
N387        O394   1.262       .  A
C397        C398   1.403       .  A
C397        C402   1.401       .  A
C397        H407   1.086       .  S
C398        C403   1.483       .  S
C398        C399   1.409       .  A
C399        C400   1.398       .  A
C399        N404   1.432       .  S
C400        C401   1.406       .  A
C400        H405   1.086       .  S
C401        C402   1.415       .  A
C402        N406   1.431       .  S
C403        C408   1.407       .  A
C403        C412   1.401       .  A
N404        O419   1.262       .  A
N404        O420   1.262       .  A
N406        O417   1.262       .  A
N406        O418   1.262       .  A
C408        C409   1.400       .  A
C408        N413   1.430       .  S
C409        C410   1.408       .  A
C409        H414   1.086       .  S
C410        C411   1.419       .  A
C411        C412   1.400       .  A
C411        N415   1.432       .  S
C412        H416   1.086       .  S
N413        O423   1.262       .  A
N413        O424   1.262       .  A
N415        O421   1.262       .  A
N415        O422   1.262       .  A
O425       Cr443   2.002       .  S
O425        C433   1.266       .  A
O426       Cr443   1.975       .  S
O426        C427   1.260       .  A
C427        O428   1.265       .  A
C427        C594   1.483       .  S
O428       Cr444   2.001       .  S
O429       Cr444   1.982       .  S
O429        C430   1.261       .  A
C430        O431   1.266       .  A
C430        C482   1.488       .  S
O431       Cr445   2.003       .  S
O432       Cr445   1.976       .  S
O432        C433   1.260       .  A
C433        C566   1.487       .  S
O434       Cr443   1.976       .  S
O434        C442   1.260       .  A
O435       Cr443   2.004       .  S
O435        C436   1.264       .  A
C436        O437   1.261       .  A
C436        C622   1.489       .  S
O437       Cr444   1.976       .  S
O438       Cr444   2.004       .  S
O438        C439   1.265       .  A
C439        O440   1.261       .  A
C439        C501   1.483       .  S
O440       Cr445   1.975       .  S
O441       Cr445   2.004       .  S
O441        C442   1.265       .  A
C442        C538   1.487       .  S
Cr443       O446   1.769       .  S
Cr444       O446   1.769       .  S
Cr445       O446   1.768       .  S
O447       Cr465   2.003       .  S
O447        C455   1.265       .  A
O448       Cr465   1.976       .  S
O448        C449   1.260       .  A
C449        O450   1.266       .  A
C449        C613   1.483       .  S
O450       Cr466   2.005       .  S
O451       Cr466   1.976       .  S
O451        C452   1.259       .  A
C452        O453   1.265       .  A
C452        C510   1.478       .  S
O453       Cr467   2.004       .  S
O454       Cr467   1.981       .  S
O454        C455   1.262       .  A
C455        C529   1.485       .  S
O456       Cr465   1.976       .  S
O456        C464   1.261       .  A
O457       Cr465   2.004       .  S
O457        C458   1.266       .  A
C458        O459   1.259       .  A
C458        C585   1.488       .  S
O459       Cr466   1.974       .  S
O460       Cr466   2.009       .  S
O460        C461   1.266       .  A
C461        O462   1.262       .  A
C461        C473   1.491       .  S
O462       Cr467   1.977       .  S
O463       Cr467   2.005       .  S
O463        C464   1.265       .  A
C464        C557   1.486       .  S
Cr465       O468   1.767       .  S
Cr466       O468   1.767       .  S
Cr467       O468   1.767       .  S
C469        C470   1.401       .  A
C469        C474   1.400       .  A
C469        H479   1.087       .  S
C470       C1535   1.484   1_554  S
C470        C471   1.408       .  A
C471        C472   1.401       .  A
C471        N688   1.430   1_554  S
C472        C473   1.409       .  A
C472        H477   1.086       .  S
C473        C474   1.419       .  A
C474        N478   1.431       .  S
C475       C1530   1.484   1_455  S
C475        C480   1.408       .  A
C475        C484   1.404       .  A
N476        C683   1.430       .  S
N476        O703   1.262       .  A
N476        O492   1.262       .  A
N478        O489   1.262       .  A
N478        O490   1.262       .  A
C480        C481   1.398       .  A
C480       N1333   1.431   1_455  S
C481        C482   1.407       .  A
C481        H486   1.086       .  S
C482        C483   1.416       .  A
C483        C484   1.403       .  A
C483        N487   1.430       .  S
C484        H700   1.086       .  S
N485       C1328   1.431       .  S
N485        O495   1.262       .  A
N485        O496   1.262       .  A
N487        O493   1.262       .  A
N487        O494   1.262       .  A
H488        C696   1.086   1_554  S
O491        N688   1.262   1_554  A
C497        C498   1.398       .  A
C497        C502   1.398       .  A
C497        H507   1.085   1_455  S
C498       C1351   1.472   1_455  S
C498        C499   1.406       .  A
C499        C500   1.400       .  A
C499        N504   1.429       .  S
C500        C501   1.407       .  A
C500        H505   1.085       .  S
C501        C502   1.417       .  A
C502        N506   1.430       .  S
C503       C1346   1.472       .  S
C503        C508   1.405       .  A
C503        C512   1.401       .  A
N504        O519   1.262       .  A
N504       O1368   1.262       .  A
N506        O517   1.262       .  A
N506        O518   1.262       .  A
C508        C509   1.397       .  A
C508       N1361   1.429       .  S
C509        C510   1.405       .  A
C509        H514   1.085       .  S
C510        C511   1.413       .  A
C511        C512   1.401       .  A
C511        N515   1.430       .  S
C512        H516   1.085       .  S
N513       C1356   1.429   1_455  S
N513        O523   1.262       .  A
N513        O524   1.262       .  A
N515        O521   1.262       .  A
N515        O522   1.262       .  A
O520       N1352   1.262       .  A
C525        C526   1.398       .  A
C525        C530   1.399       .  A
C526        C527   1.405       .  A
C527        C528   1.400       .  A
C527        N532   1.428       .  S
C528        C529   1.407       .  A
C528        H533   1.085       .  S
C529        C530   1.418       .  A
C530        N534   1.430       .  S
C531        C536   1.403       .  A
C531        C540   1.399       .  A
N532        O547   1.261       .  A
N532        O548   1.262       .  A
N534        O546   1.262       .  A
C536        C537   1.398       .  A
C536        N541   1.430   1_565  S
C537        C538   1.409       .  A
C537        H542   1.085       .  S
C538        C539   1.419       .  A
C539        C540   1.403       .  A
C539        N543   1.434       .  S
C540        H544   1.086       .  S
N541        O551   1.262       .  A
N543        O549   1.263       .  A
N543        O550   1.262       .  A
C553        C554   1.398       .  A
C553        C558   1.398       .  A
C553        H775   1.086       .  S
C554        C555   1.405       .  A
C555        C556   1.401       .  A
C556        C557   1.408       .  A
C556        H561   1.085       .  S
C557        C558   1.418       .  A
C558        N562   1.430       .  S
C559        C564   1.404       .  A
C559        C568   1.401       .  A
N560        O575   1.262       .  A
N560        O576   1.262       .  A
N562        O785   1.262       .  A
N562        O574   1.262       .  A
H563        C765   1.086       .  S
C564        C565   1.396       .  A
C565        C566   1.408       .  A
C565        H570   1.085       .  S
C566        C567   1.417       .  A
C567        C568   1.402       .  A
C567        N571   1.431       .  S
C568        H784   1.086       .  S
N569        O579   1.262       .  A
N569        O580   1.262       .  A
N571        O577   1.262       .  A
N571        O790   1.262       .  A
H572        C780   1.086   1_554  S
O573        N774   1.262       .  A
O578        N783   1.262       .  A
C581        C582   1.400       .  A
C581        C586   1.402       .  A
C581        H803   1.086       .  S
C582        C799   1.476   1_554  S
C582        C583   1.405       .  A
C583        C584   1.397       .  A
C583        N588   1.431       .  S
C584        C585   1.408       .  A
C584        H589   1.085       .  S
C585        C586   1.419       .  A
C586        N590   1.431       .  S
C587        C794   1.476       .  S
C587        C592   1.406       .  A
C587        C596   1.399       .  A
N588        O603   1.262       .  A
N588        O604   1.262       .  A
N590        O813   1.262       .  A
N590        O602   1.262       .  A
H591        C793   1.086       .  S
C592        C593   1.400       .  A
C592        N597   1.429       .  S
C593        C594   1.407       .  A
C593        H598   1.085       .  S
C594        C595   1.417       .  A
C595        C596   1.398       .  A
C595        N599   1.432       .  S
C596        H812   1.086       .  S
N597        O607   1.262       .  A
N597        O820   1.262       .  A
N599        O605   1.263       .  A
N599        O606   1.262       .  A
H600        C808   1.086       .  S
O601        N802   1.262       .  A
O608        N809   1.262       .  A
C609        C610   1.403       .  A
C609        C614   1.401       .  A
C609        H619   1.086       .  S
C610        C615   1.483       .  S
C610        C611   1.409       .  A
C611        C612   1.398       .  A
C611        N616   1.432       .  S
C612        C613   1.406       .  A
C612        H617   1.086       .  S
C613        C614   1.415       .  A
C614        N618   1.431       .  S
C615        C620   1.407       .  A
C615        C624   1.401       .  A
N616        O631   1.262       .  A
N616        O632   1.262       .  A
N618        O629   1.262       .  A
N618        O630   1.262       .  A
C620        C621   1.400       .  A
C620        N625   1.430       .  S
C621        C622   1.408       .  A
C621        H626   1.086       .  S
C622        C623   1.420       .  A
C623        C624   1.400       .  A
C623        N627   1.432       .  S
C624        H628   1.086       .  S
N625        O635   1.262       .  A
N625        O636   1.262       .  A
N627        O633   1.262       .  A
N627        O634   1.262       .  A
O637       Cr655   2.002       .  S
O637        C645   1.266       .  A
O638       Cr655   1.975       .  S
O638        C639   1.260       .  A
C639        O640   1.265       .  A
C639        C806   1.483       .  S
O640       Cr656   2.001       .  S
O641       Cr656   1.982       .  S
O641        C642   1.261       .  A
C642        O643   1.266       .  A
C642        C694   1.488       .  S
O643       Cr657   2.003       .  S
O644       Cr657   1.976       .  S
O644        C645   1.260       .  A
C645        C778   1.487       .  S
O646       Cr655   1.976       .  S
O646        C654   1.260       .  A
O647       Cr655   2.004       .  S
O647        C648   1.264       .  A
C648        O649   1.261       .  A
C648        C834   1.489       .  S
O649       Cr656   1.976       .  S
O650       Cr656   2.004       .  S
O650        C651   1.265       .  A
C651        O652   1.261       .  A
C651        C713   1.483       .  S
O652       Cr657   1.975       .  S
O653       Cr657   2.004       .  S
O653        C654   1.265       .  A
C654        C750   1.487       .  S
Cr655       O658   1.769       .  S
Cr656       O658   1.769       .  S
Cr657       O658   1.768       .  S
O659       Cr677   2.003       .  S
O659        C667   1.265       .  A
O660       Cr677   1.976       .  S
O660        C661   1.260       .  A
C661        O662   1.266       .  A
C661        C825   1.483       .  S
O662       Cr678   2.005       .  S
O663       Cr678   1.976       .  S
O663        C664   1.259       .  A
C664        O665   1.265       .  A
C664        C722   1.478       .  S
O665       Cr679   2.004       .  S
O666       Cr679   1.981       .  S
O666        C667   1.262       .  A
C667        C741   1.484       .  S
O668       Cr677   1.976       .  S
O668        C676   1.261       .  A
O669       Cr677   2.004       .  S
O669        C670   1.266       .  A
C670        O671   1.259       .  A
C670        C797   1.488       .  S
O671       Cr678   1.974       .  S
O672       Cr678   2.009       .  S
O672        C673   1.266       .  A
C673        O674   1.262       .  A
C673        C685   1.491       .  S
O674       Cr679   1.977       .  S
O675       Cr679   2.005       .  S
O675        C676   1.265       .  A
C676        C769   1.486       .  S
Cr677       O680   1.767       .  S
Cr678       O680   1.767       .  S
Cr679       O680   1.767       .  S
C681        C682   1.401       .  A
C681        C686   1.400       .  A
C681        H691   1.086       .  S
C682       C1323   1.484       .  S
C682        C683   1.408       .  A
C683        C684   1.401       .  A
C684        C685   1.409       .  A
C684        H689   1.086       .  S
C685        C686   1.419       .  A
C686        N690   1.431       .  S
C687       C1318   1.484   1_456  S
C687        C692   1.408       .  A
C687        C696   1.404       .  A
N688        O704   1.262       .  A
N690        O701   1.262       .  A
N690        O702   1.262       .  A
C692        C693   1.398       .  A
C692       N1545   1.431   1_455  S
C693        C694   1.407       .  A
C693        H698   1.086       .  S
C694        C695   1.416       .  A
C695        C696   1.403       .  A
C695        N699   1.430       .  S
N697       C1540   1.431       .  S
N697        O707   1.262       .  A
N697        O708   1.262       .  A
N699        O705   1.262       .  A
N699        O706   1.262       .  A
C709        C710   1.398       .  A
C709        C714   1.398       .  A
C709        H719   1.085   1_455  S
C710       C1563   1.472   1_455  S
C710        C711   1.406       .  A
C711        C712   1.400       .  A
C711        N716   1.429       .  S
C712        C713   1.407       .  A
C712        H717   1.085       .  S
C713        C714   1.417       .  A
C714        N718   1.430       .  S
C715       C1558   1.472       .  S
C715        C720   1.405       .  A
C715        C724   1.401       .  A
N716        O731   1.262       .  A
N716       O1580   1.262       .  A
N718        O729   1.262       .  A
N718        O730   1.262       .  A
C720        C721   1.397       .  A
C720       N1573   1.429       .  S
C721        C722   1.405       .  A
C721        H726   1.085       .  S
C722        C723   1.413       .  A
C723        C724   1.401       .  A
C723        N727   1.430       .  S
C724        H728   1.085       .  S
N725       C1568   1.429   1_455  S
N725        O735   1.262       .  A
N725        O736   1.262       .  A
N727        O733   1.262       .  A
N727        O734   1.262       .  A
O732       N1564   1.262       .  A
C737        C738   1.398       .  A
C737        C742   1.399       .  A
C738        C739   1.405       .  A
C739        C740   1.400       .  A
C739        N744   1.428       .  S
C740        C741   1.407       .  A
C740        H745   1.085       .  S
C741        C742   1.418       .  A
C742        N746   1.430       .  S
C743        C748   1.403       .  A
C743        C752   1.399       .  A
N744        O759   1.261       .  A
N744        O760   1.262       .  A
N746        O758   1.262       .  A
C748        C749   1.399       .  A
C748        N753   1.430   1_565  S
C749        C750   1.409       .  A
C749        H754   1.085       .  S
C750        C751   1.419       .  A
C751        C752   1.403       .  A
C751        N755   1.434       .  S
C752        H756   1.086       .  S
N753        O763   1.262       .  A
N755        O761   1.263       .  A
N755        O762   1.262       .  A
C765        C766   1.398       .  A
C765        C770   1.398       .  A
C766        C767   1.405       .  A
C767        C768   1.401       .  A
C768        C769   1.408       .  A
C768        H773   1.085       .  S
C769        C770   1.418       .  A
C770        N774   1.430       .  S
C771        C776   1.404       .  A
C771        C780   1.401       .  A
N772        O787   1.262       .  A
N772        O788   1.262       .  A
N774        O786   1.262       .  A
C776        C777   1.396       .  A
C777        C778   1.408       .  A
C777        H782   1.085       .  S
C778        C779   1.417       .  A
C779        C780   1.402       .  A
C779        N783   1.431       .  S
N781        O791   1.262       .  A
N781        O792   1.262       .  A
N783        O789   1.262       .  A
C793        C794   1.400       .  A
C793        C798   1.402       .  A
C794        C795   1.405       .  A
C795        C796   1.397       .  A
C795        N800   1.431       .  S
C796        C797   1.408       .  A
C796        H801   1.085       .  S
C797        C798   1.419       .  A
C798        N802   1.431       .  S
C799        C804   1.406       .  A
C799        C808   1.399       .  A
N800        O815   1.262       .  A
N800        O816   1.262       .  A
N802        O814   1.262       .  A
C804        C805   1.400       .  A
C804        N809   1.429   1_556  S
C805        C806   1.407       .  A
C805        H810   1.085       .  S
C806        C807   1.417       .  A
C807        C808   1.398       .  A
C807        N811   1.432       .  S
N809        O819   1.262       .  A
N811        O817   1.263       .  A
N811        O818   1.262       .  A
C821        C822   1.403       .  A
C821        C826   1.401       .  A
C821        H831   1.086       .  S
C822        C827   1.483       .  S
C822        C823   1.409       .  A
C823        C824   1.398       .  A
C823        N828   1.432       .  S
C824        C825   1.406       .  A
C824        H829   1.086       .  S
C825        C826   1.415       .  A
C826        N830   1.431       .  S
C827        C832   1.407       .  A
C827        C836   1.401       .  A
N828        O843   1.262       .  A
N828        O844   1.262       .  A
N830        O841   1.262       .  A
N830        O842   1.262       .  A
C832        C833   1.400       .  A
C832        N837   1.430       .  S
C833        C834   1.408       .  A
C833        H838   1.086       .  S
C834        C835   1.420       .  A
C835        C836   1.400       .  A
C835        N839   1.432       .  S
C836        H840   1.086       .  S
N837        O847   1.262       .  A
N837        O848   1.262       .  A
N839        O845   1.262       .  A
N839        O846   1.262       .  A
O849       Cr867   2.002       .  S
O849        C857   1.266       .  A
O850       Cr867   1.975       .  S
O850        C851   1.260       .  A
C851        O852   1.265       .  A
C851       C1018   1.483       .  S
O852       Cr868   2.001       .  S
O853       Cr868   1.981       .  S
O853        C854   1.261       .  A
C854        O855   1.266       .  A
C854        C906   1.488       .  S
O855       Cr869   2.003       .  S
O856       Cr869   1.976       .  S
O856        C857   1.260       .  A
C857        C990   1.487       .  S
O858       Cr867   1.976       .  S
O858        C866   1.260       .  A
O859       Cr867   2.004       .  S
O859        C860   1.264       .  A
C860        O861   1.261       .  A
C860       C1046   1.489       .  S
O861       Cr868   1.976       .  S
O862       Cr868   2.004       .  S
O862        C863   1.265       .  A
C863        O864   1.261       .  A
C863        C925   1.483       .  S
O864       Cr869   1.975       .  S
O865       Cr869   2.004       .  S
O865        C866   1.265       .  A
C866        C962   1.487       .  S
Cr867       O870   1.769       .  S
Cr868       O870   1.769       .  S
Cr869       O870   1.768       .  S
O871       Cr889   2.003       .  S
O871        C879   1.265       .  A
O872       Cr889   1.976       .  S
O872        C873   1.260       .  A
C873        O874   1.266       .  A
C873       C1037   1.483       .  S
O874       Cr890   2.005       .  S
O875       Cr890   1.976       .  S
O875        C876   1.259       .  A
C876        O877   1.265       .  A
C876        C934   1.478       .  S
O877       Cr891   2.005       .  S
O878       Cr891   1.981       .  S
O878        C879   1.262       .  A
C879        C953   1.485       .  S
O880       Cr889   1.976       .  S
O880        C888   1.261       .  A
O881       Cr889   2.004       .  S
O881        C882   1.266       .  A
C882        O883   1.259       .  A
C882       C1009   1.488       .  S
O883       Cr890   1.974       .  S
O884       Cr890   2.009       .  S
O884        C885   1.266       .  A
C885        O886   1.262       .  A
C885        C897   1.491       .  S
O886       Cr891   1.977       .  S
O887       Cr891   2.005       .  S
O887        C888   1.265       .  A
C888        C981   1.486       .  S
Cr889       O892   1.767       .  S
Cr890       O892   1.767       .  S
Cr891       O892   1.767       .  S
C893        C894   1.401       .  A
C893        C898   1.400       .  A
C893        H903   1.087       .  S
C894        C895   1.408       .  A
C895        C896   1.401       .  A
C895       N1112   1.430   1_554  S
C896        C897   1.409       .  A
C896        H901   1.086       .  S
C897        C898   1.419       .  A
C898        N902   1.431       .  S
C899        C904   1.408       .  A
C899        C908   1.404       .  A
N900       C1107   1.430       .  S
N900       O1127   1.262       .  A
N900        O916   1.262       .  A
N902        O913   1.262       .  A
N902        O914   1.262       .  A
C904        C905   1.398       .  A
C905        C906   1.407       .  A
C905        H910   1.086       .  S
C906        C907   1.416       .  A
C907        C908   1.403       .  A
C907        N911   1.430       .  S
C908       H1124   1.086       .  S
N909        O919   1.262       .  A
N909        O920   1.262       .  A
N911        O917   1.262       .  A
N911        O918   1.262       .  A
H912       C1120   1.086   1_554  S
O915       N1112   1.262   1_554  A
C921        C922   1.398       .  A
C921        C926   1.398       .  A
C921        H931   1.085       .  S
C922        C923   1.406       .  A
C923        C924   1.400       .  A
C923        N928   1.429       .  S
C924        C925   1.407       .  A
C924        H929   1.085       .  S
C925        C926   1.417       .  A
C926        N930   1.430       .  S
C927        C932   1.405       .  A
C927        C936   1.401       .  A
N928        O943   1.262       .  A
N930        O941   1.262       .  A
N930        O942   1.262       .  A
C932        C933   1.397       .  A
C933        C934   1.405       .  A
C933        H938   1.085       .  S
C934        C935   1.413       .  A
C935        C936   1.401       .  A
C935        N939   1.430       .  S
C936        H940   1.085       .  S
N937        O947   1.262       .  A
N937        O948   1.262       .  A
N939        O945   1.262       .  A
N939        O946   1.262       .  A
C949        C950   1.398       .  A
C949        C954   1.399       .  A
C949       H1383   1.086   1_545  S
C950       C1379   1.475   1_545  S
C950        C951   1.405       .  A
C951        C952   1.400       .  A
C951        N956   1.428       .  S
C952        C953   1.407       .  A
C952        H957   1.085       .  S
C953        C954   1.418       .  A
C954        N958   1.430       .  S
C955       C1374   1.474       .  S
C955        C960   1.403       .  A
C955        C964   1.399       .  A
N956        O971   1.261       .  A
N956        O972   1.262       .  A
N958       O1393   1.262       .  A
N958        O970   1.262       .  A
H959       C1373   1.086       .  S
C960        C961   1.398       .  A
C960        N965   1.429       .  S
C961        C962   1.409       .  A
C961        H966   1.085       .  S
C962        C963   1.419       .  A
C963        C964   1.403       .  A
C963        N967   1.434       .  S
C964        H968   1.086       .  S
N965        O975   1.262       .  A
N965       O1400   1.262       .  A
N967        O973   1.263       .  A
N967        O974   1.262       .  A
O969       N1382   1.262       .  A
O976       N1389   1.262       .  A
C977        C978   1.398       .  A
C977        C982   1.398       .  A
C977       H1199   1.086   1_545  S
C978       C1619   1.475   1_544  S
C978        C979   1.405       .  A
C979        C980   1.401       .  A
C979       N1408   1.429   1_554  S
C980        C981   1.408       .  A
C980        H985   1.085       .  S
C981        C982   1.418       .  A
C982        N986   1.430       .  S
C983       C1614   1.475       .  S
C983        C988   1.404       .  A
C983        C992   1.401       .  A
N984       C1403   1.429   1_556  S
N984        O999   1.262       .  A
N984       O1000   1.262       .  A
N986       O1209   1.262       .  A
N986        O998   1.262       .  A
H987       C1189   1.086   1_565  S
C988        C989   1.396       .  A
C988       N1417   1.430       .  S
C989        C990   1.408       .  A
C989        H994   1.085       .  S
C990        C991   1.417       .  A
C991        C992   1.402       .  A
C991        N995   1.431       .  S
C992       H1208   1.086       .  S
N993       C1412   1.430   1_545  S
N993       O1003   1.262       .  A
N993       O1004   1.262       .  A
N995       O1001   1.262       .  A
N995       O1214   1.262       .  A
H996       C1204   1.086   1_554  S
O997       N1198   1.262       .  A
O1002      N1207   1.262       .  A
C1005      C1006   1.400       .  A
C1005      C1010   1.402       .  A
C1005      H1227   1.086       .  S
C1006      C1223   1.476   1_554  S
C1006      C1007   1.405       .  A
C1007      C1008   1.397       .  A
C1007      N1012   1.431       .  S
C1008      C1009   1.408       .  A
C1008      H1013   1.085       .  S
C1009      C1010   1.419       .  A
C1010      N1014   1.431       .  S
C1011      C1218   1.476       .  S
C1011      C1016   1.406       .  A
C1011      C1020   1.399       .  A
N1012      O1027   1.262       .  A
N1012      O1028   1.262       .  A
N1014      O1237   1.262       .  A
N1014      O1026   1.262       .  A
H1015      C1217   1.086       .  S
C1016      C1017   1.400       .  A
C1016      N1021   1.429       .  S
C1017      C1018   1.407       .  A
C1017      H1022   1.085       .  S
C1018      C1019   1.417       .  A
C1019      C1020   1.398       .  A
C1019      N1023   1.432       .  S
C1020      H1236   1.086       .  S
N1021      O1031   1.262       .  A
N1021      O1244   1.262       .  A
N1023      O1029   1.263       .  A
N1023      O1030   1.262       .  A
H1024      C1232   1.086       .  S
O1025      N1226   1.262       .  A
O1032      N1233   1.262       .  A
C1033      C1034   1.403       .  A
C1033      C1038   1.401       .  A
C1033      H1043   1.086       .  S
C1034      C1039   1.483       .  S
C1034      C1035   1.409       .  A
C1035      C1036   1.398       .  A
C1035      N1040   1.432       .  S
C1036      C1037   1.406       .  A
C1036      H1041   1.086       .  S
C1037      C1038   1.415       .  A
C1038      N1042   1.431       .  S
C1039      C1044   1.407       .  A
C1039      C1048   1.401       .  A
N1040      O1055   1.262       .  A
N1040      O1056   1.262       .  A
N1042      O1053   1.262       .  A
N1042      O1054   1.262       .  A
C1044      C1045   1.400       .  A
C1044      N1049   1.430       .  S
C1045      C1046   1.408       .  A
C1045      H1050   1.086       .  S
C1046      C1047   1.419       .  A
C1047      C1048   1.400       .  A
C1047      N1051   1.432       .  S
C1048      H1052   1.086       .  S
N1049      O1059   1.262       .  A
N1049      O1060   1.262       .  A
N1051      O1057   1.262       .  A
N1051      O1058   1.262       .  A
O1061     Cr1079   2.002       .  S
O1061      C1069   1.266       .  A
O1062     Cr1079   1.975       .  S
O1062      C1063   1.260       .  A
C1063      O1064   1.265       .  A
C1063      C1230   1.483       .  S
O1064     Cr1080   2.001       .  S
O1065     Cr1080   1.981       .  S
O1065      C1066   1.261       .  A
C1066      O1067   1.266       .  A
C1066      C1118   1.488       .  S
O1067     Cr1081   2.003       .  S
O1068     Cr1081   1.976       .  S
O1068      C1069   1.260       .  A
C1069      C1202   1.487       .  S
O1070     Cr1079   1.976       .  S
O1070      C1078   1.260       .  A
O1071     Cr1079   2.004       .  S
O1071      C1072   1.264       .  A
C1072      O1073   1.261       .  A
C1072      C1258   1.489       .  S
O1073     Cr1080   1.976       .  S
O1074     Cr1080   2.004       .  S
O1074      C1075   1.265       .  A
C1075      O1076   1.261       .  A
C1075      C1137   1.483       .  S
O1076     Cr1081   1.975       .  S
O1077     Cr1081   2.004       .  S
O1077      C1078   1.265       .  A
C1078      C1174   1.487       .  S
Cr1079     O1082   1.769       .  S
Cr1080     O1082   1.769       .  S
Cr1081     O1082   1.768       .  S
O1083     Cr1101   2.003       .  S
O1083      C1091   1.265       .  A
O1084     Cr1101   1.976       .  S
O1084      C1085   1.260       .  A
C1085      O1086   1.266       .  A
C1085      C1249   1.483       .  S
O1086     Cr1102   2.005       .  S
O1087     Cr1102   1.976       .  S
O1087      C1088   1.259       .  A
C1088      O1089   1.265       .  A
C1088      C1146   1.478       .  S
O1089     Cr1103   2.005       .  S
O1090     Cr1103   1.981       .  S
O1090      C1091   1.262       .  A
C1091      C1165   1.485       .  S
O1092     Cr1101   1.976       .  S
O1092      C1100   1.261       .  A
O1093     Cr1101   2.004       .  S
O1093      C1094   1.266       .  A
C1094      O1095   1.259       .  A
C1094      C1221   1.488       .  S
O1095     Cr1102   1.974       .  S
O1096     Cr1102   2.009       .  S
O1096      C1097   1.266       .  A
C1097      O1098   1.262       .  A
C1097      C1109   1.491       .  S
O1098     Cr1103   1.977       .  S
O1099     Cr1103   2.005       .  S
O1099      C1100   1.265       .  A
C1100      C1193   1.486       .  S
Cr1101     O1104   1.767       .  S
Cr1102     O1104   1.767       .  S
Cr1103     O1104   1.767       .  S
C1105      C1106   1.401       .  A
C1105      C1110   1.400       .  A
C1105      H1115   1.087       .  S
C1106      C1107   1.407       .  A
C1107      C1108   1.401       .  A
C1108      C1109   1.409       .  A
C1108      H1113   1.086       .  S
C1109      C1110   1.419       .  A
C1110      N1114   1.431       .  S
C1111      C1116   1.408       .  A
C1111      C1120   1.404       .  A
N1112      O1128   1.262       .  A
N1114      O1125   1.262       .  A
N1114      O1126   1.262       .  A
C1116      C1117   1.398       .  A
C1117      C1118   1.407       .  A
C1117      H1122   1.086       .  S
C1118      C1119   1.416       .  A
C1119      C1120   1.403       .  A
C1119      N1123   1.430       .  S
N1121      O1131   1.262       .  A
N1121      O1132   1.262       .  A
N1123      O1129   1.262       .  A
N1123      O1130   1.262       .  A
C1133      C1134   1.398       .  A
C1133      C1138   1.398       .  A
C1133      H1143   1.085       .  S
C1134      C1135   1.406       .  A
C1135      C1136   1.400       .  A
C1135      N1140   1.429       .  S
C1136      C1137   1.407       .  A
C1136      H1141   1.085       .  S
C1137      C1138   1.417       .  A
C1138      N1142   1.430       .  S
C1139      C1144   1.405       .  A
C1139      C1148   1.401       .  A
N1140      O1155   1.262       .  A
N1142      O1153   1.262       .  A
N1142      O1154   1.262       .  A
C1144      C1145   1.397       .  A
C1145      C1146   1.405       .  A
C1145      H1150   1.085       .  S
C1146      C1147   1.413       .  A
C1147      C1148   1.401       .  A
C1147      N1151   1.430       .  S
C1148      H1152   1.085       .  S
N1149      O1159   1.262       .  A
N1149      O1160   1.262       .  A
N1151      O1157   1.262       .  A
N1151      O1158   1.262       .  A
C1161      C1162   1.398       .  A
C1161      C1166   1.399       .  A
C1161      H1595   1.086   1_545  S
C1162      C1591   1.475   1_545  S
C1162      C1163   1.405       .  A
C1163      C1164   1.400       .  A
C1163      N1168   1.428       .  S
C1164      C1165   1.407       .  A
C1164      H1169   1.085       .  S
C1165      C1166   1.418       .  A
C1166      N1170   1.430       .  S
C1167      C1586   1.474       .  S
C1167      C1172   1.403       .  A
C1167      C1176   1.399       .  A
N1168      O1183   1.261       .  A
N1168      O1184   1.262       .  A
N1170      O1605   1.262       .  A
N1170      O1182   1.262       .  A
H1171      C1585   1.086       .  S
C1172      C1173   1.398       .  A
C1172      N1177   1.429       .  S
C1173      C1174   1.409       .  A
C1173      H1178   1.085       .  S
C1174      C1175   1.419       .  A
C1175      C1176   1.403       .  A
C1175      N1179   1.434       .  S
C1176      H1180   1.086       .  S
N1177      O1187   1.262       .  A
N1177      O1612   1.262       .  A
N1179      O1185   1.263       .  A
N1179      O1186   1.262       .  A
O1181      N1594   1.262       .  A
O1188      N1601   1.262       .  A
C1189      C1190   1.398       .  A
C1189      C1194   1.398       .  A
C1190      C1407   1.475   1_545  S
C1190      C1191   1.405       .  A
C1191      C1192   1.401       .  A
C1191      N1620   1.429       .  S
C1192      C1193   1.408       .  A
C1192      H1197   1.085       .  S
C1193      C1194   1.418       .  A
C1194      N1198   1.430       .  S
C1195      C1402   1.475   1_556  S
C1195      C1200   1.404       .  A
C1195      C1204   1.401       .  A
N1196      C1615   1.429       .  S
N1196      O1211   1.262       .  A
N1196      O1212   1.262       .  A
N1198      O1210   1.262       .  A
C1200      C1201   1.396       .  A
C1200      N1629   1.430       .  S
C1201      C1202   1.408       .  A
C1201      H1206   1.085       .  S
C1202      C1203   1.417       .  A
C1203      C1204   1.402       .  A
C1203      N1207   1.431       .  S
N1205      C1624   1.430   1_545  S
N1205      O1215   1.262       .  A
N1205      O1216   1.262       .  A
N1207      O1213   1.262       .  A
C1217      C1218   1.400       .  A
C1217      C1222   1.402       .  A
C1218      C1219   1.405       .  A
C1219      C1220   1.397       .  A
C1219      N1224   1.431       .  S
C1220      C1221   1.408       .  A
C1220      H1225   1.085       .  S
C1221      C1222   1.419       .  A
C1222      N1226   1.431       .  S
C1223      C1228   1.406       .  A
C1223      C1232   1.399       .  A
N1224      O1239   1.262       .  A
N1224      O1240   1.262       .  A
N1226      O1238   1.262       .  A
C1228      C1229   1.400       .  A
C1228      N1233   1.429   1_556  S
C1229      C1230   1.407       .  A
C1229      H1234   1.085       .  S
C1230      C1231   1.417       .  A
C1231      C1232   1.398       .  A
C1231      N1235   1.432       .  S
N1233      O1243   1.262       .  A
N1235      O1241   1.263       .  A
N1235      O1242   1.262       .  A
C1245      C1246   1.403       .  A
C1245      C1250   1.401       .  A
C1245      H1255   1.086       .  S
C1246      C1251   1.483       .  S
C1246      C1247   1.409       .  A
C1247      C1248   1.398       .  A
C1247      N1252   1.432       .  S
C1248      C1249   1.406       .  A
C1248      H1253   1.086       .  S
C1249      C1250   1.415       .  A
C1250      N1254   1.431       .  S
C1251      C1256   1.407       .  A
C1251      C1260   1.401       .  A
N1252      O1267   1.262       .  A
N1252      O1268   1.262       .  A
N1254      O1265   1.262       .  A
N1254      O1266   1.262       .  A
C1256      C1257   1.400       .  A
C1256      N1261   1.430       .  S
C1257      C1258   1.408       .  A
C1257      H1262   1.086       .  S
C1258      C1259   1.419       .  A
C1259      C1260   1.400       .  A
C1259      N1263   1.432       .  S
C1260      H1264   1.086       .  S
N1261      O1271   1.262       .  A
N1261      O1272   1.262       .  A
N1263      O1269   1.262       .  A
N1263      O1270   1.262       .  A
O1273     Cr1291   2.002       .  S
O1273      C1281   1.266       .  A
O1274     Cr1291   1.975       .  S
O1274      C1275   1.260       .  A
C1275      O1276   1.265       .  A
C1275      C1442   1.483       .  S
O1276     Cr1292   2.001       .  S
O1277     Cr1292   1.982       .  S
O1277      C1278   1.261       .  A
C1278      O1279   1.266       .  A
C1278      C1330   1.488       .  S
O1279     Cr1293   2.003       .  S
O1280     Cr1293   1.976       .  S
O1280      C1281   1.260       .  A
C1281      C1414   1.487       .  S
O1282     Cr1291   1.976       .  S
O1282      C1290   1.260       .  A
O1283     Cr1291   2.004       .  S
O1283      C1284   1.264       .  A
C1284      O1285   1.261       .  A
C1284      C1470   1.489       .  S
O1285     Cr1292   1.976       .  S
O1286     Cr1292   2.004       .  S
O1286      C1287   1.265       .  A
C1287      O1288   1.261       .  A
C1287      C1349   1.483       .  S
O1288     Cr1293   1.975       .  S
O1289     Cr1293   2.004       .  S
O1289      C1290   1.265       .  A
C1290      C1386   1.487       .  S
Cr1291     O1294   1.769       .  S
Cr1292     O1294   1.769       .  S
Cr1293     O1294   1.768       .  S
O1295     Cr1313   2.003       .  S
O1295      C1303   1.265       .  A
O1296     Cr1313   1.976       .  S
O1296      C1297   1.260       .  A
C1297      O1298   1.266       .  A
C1297      C1461   1.483       .  S
O1298     Cr1314   2.005       .  S
O1299     Cr1314   1.976       .  S
O1299      C1300   1.259       .  A
C1300      O1301   1.265       .  A
C1300      C1358   1.478       .  S
O1301     Cr1315   2.005       .  S
O1302     Cr1315   1.981       .  S
O1302      C1303   1.262       .  A
C1303      C1377   1.485       .  S
O1304     Cr1313   1.976       .  S
O1304      C1312   1.261       .  A
O1305     Cr1313   2.004       .  S
O1305      C1306   1.266       .  A
C1306      O1307   1.259       .  A
C1306      C1433   1.488       .  S
O1307     Cr1314   1.974       .  S
O1308     Cr1314   2.009       .  S
O1308      C1309   1.266       .  A
C1309      O1310   1.262       .  A
C1309      C1321   1.491       .  S
O1310     Cr1315   1.977       .  S
O1311     Cr1315   2.005       .  S
O1311      C1312   1.265       .  A
C1312      C1405   1.486       .  S
Cr1313     O1316   1.767       .  S
Cr1314     O1316   1.767       .  S
Cr1315     O1316   1.767       .  S
C1317      C1318   1.401       .  A
C1317      C1322   1.400       .  A
C1317      H1327   1.087       .  S
C1318      C1319   1.408       .  A
C1319      C1320   1.401       .  A
C1319      N1536   1.430   1_554  S
C1320      C1321   1.409       .  A
C1320      H1325   1.086       .  S
C1321      C1322   1.419       .  A
C1322      N1326   1.431       .  S
C1323      C1328   1.408       .  A
C1323      C1332   1.404       .  A
N1324      C1531   1.430       .  S
N1324      O1551   1.262       .  A
N1324      O1340   1.262       .  A
N1326      O1337   1.262       .  A
N1326      O1338   1.262       .  A
C1328      C1329   1.398       .  A
C1329      C1330   1.407       .  A
C1329      H1334   1.086       .  S
C1330      C1331   1.416       .  A
C1331      C1332   1.403       .  A
C1331      N1335   1.430       .  S
C1332      H1548   1.086       .  S
N1333      O1343   1.262       .  A
N1333      O1344   1.262       .  A
N1335      O1341   1.262       .  A
N1335      O1342   1.262       .  A
H1336      C1544   1.086   1_554  S
O1339      N1536   1.262   1_554  A
C1345      C1346   1.398       .  A
C1345      C1350   1.398       .  A
C1345      H1355   1.085       .  S
C1346      C1347   1.406       .  A
C1347      C1348   1.400       .  A
C1347      N1352   1.429       .  S
C1348      C1349   1.407       .  A
C1348      H1353   1.085       .  S
C1349      C1350   1.417       .  A
C1350      N1354   1.430       .  S
C1351      C1356   1.405       .  A
C1351      C1360   1.401       .  A
N1352      O1367   1.262       .  A
N1354      O1365   1.262       .  A
N1354      O1366   1.262       .  A
C1356      C1357   1.397       .  A
C1357      C1358   1.405       .  A
C1357      H1362   1.085       .  S
C1358      C1359   1.413       .  A
C1359      C1360   1.401       .  A
C1359      N1363   1.430       .  S
C1360      H1364   1.085       .  S
N1361      O1371   1.262       .  A
N1361      O1372   1.262       .  A
N1363      O1369   1.262       .  A
N1363      O1370   1.262       .  A
C1373      C1374   1.398       .  A
C1373      C1378   1.399       .  A
C1374      C1375   1.405       .  A
C1375      C1376   1.400       .  A
C1375      N1380   1.428       .  S
C1376      C1377   1.407       .  A
C1376      H1381   1.085       .  S
C1377      C1378   1.418       .  A
C1378      N1382   1.430       .  S
C1379      C1384   1.403       .  A
C1379      C1388   1.399       .  A
N1380      O1395   1.261       .  A
N1380      O1396   1.262       .  A
N1382      O1394   1.262       .  A
C1384      C1385   1.398       .  A
C1384      N1389   1.429   1_565  S
C1385      C1386   1.409       .  A
C1385      H1390   1.085       .  S
C1386      C1387   1.419       .  A
C1387      C1388   1.403       .  A
C1387      N1391   1.434       .  S
C1388      H1392   1.086       .  S
N1389      O1399   1.262       .  A
N1391      O1397   1.263       .  A
N1391      O1398   1.262       .  A
C1401      C1402   1.398       .  A
C1401      C1406   1.398       .  A
C1401      H1623   1.086       .  S
C1402      C1403   1.405       .  A
C1403      C1404   1.401       .  A
C1404      C1405   1.408       .  A
C1404      H1409   1.085       .  S
C1405      C1406   1.418       .  A
C1406      N1410   1.430       .  S
C1407      C1412   1.404       .  A
C1407      C1416   1.401       .  A
N1408      O1423   1.262       .  A
N1408      O1424   1.262       .  A
N1410      O1633   1.262       .  A
N1410      O1422   1.262       .  A
H1411      C1613   1.086       .  S
C1412      C1413   1.396       .  A
C1413      C1414   1.408       .  A
C1413      H1418   1.085       .  S
C1414      C1415   1.417       .  A
C1415      C1416   1.402       .  A
C1415      N1419   1.431       .  S
C1416      H1632   1.086       .  S
N1417      O1427   1.262       .  A
N1417      O1428   1.262       .  A
N1419      O1425   1.262       .  A
N1419      O1638   1.262       .  A
H1420      C1628   1.086   1_554  S
O1421      N1622   1.262       .  A
O1426      N1631   1.262       .  A
C1429      C1430   1.400       .  A
C1429      C1434   1.402       .  A
C1429      H1651   1.086       .  S
C1430      C1647   1.476   1_554  S
C1430      C1431   1.405       .  A
C1431      C1432   1.397       .  A
C1431      N1436   1.431       .  S
C1432      C1433   1.408       .  A
C1432      H1437   1.085       .  S
C1433      C1434   1.419       .  A
C1434      N1438   1.431       .  S
C1435      C1642   1.476       .  S
C1435      C1440   1.406       .  A
C1435      C1444   1.399       .  A
N1436      O1451   1.262       .  A
N1436      O1452   1.262       .  A
N1438      O1661   1.262       .  A
N1438      O1450   1.262       .  A
H1439      C1641   1.086       .  S
C1440      C1441   1.400       .  A
C1440      N1445   1.429       .  S
C1441      C1442   1.407       .  A
C1441      H1446   1.085       .  S
C1442      C1443   1.417       .  A
C1443      C1444   1.398       .  A
C1443      N1447   1.432       .  S
C1444      H1660   1.086       .  S
N1445      O1455   1.262       .  A
N1445      O1668   1.262       .  A
N1447      O1453   1.263       .  A
N1447      O1454   1.262       .  A
H1448      C1656   1.086       .  S
O1449      N1650   1.262       .  A
O1456      N1657   1.262       .  A
C1457      C1458   1.403       .  A
C1457      C1462   1.401       .  A
C1457      H1467   1.086       .  S
C1458      C1463   1.483       .  S
C1458      C1459   1.409       .  A
C1459      C1460   1.398       .  A
C1459      N1464   1.432       .  S
C1460      C1461   1.406       .  A
C1460      H1465   1.086       .  S
C1461      C1462   1.415       .  A
C1462      N1466   1.431       .  S
C1463      C1468   1.407       .  A
C1463      C1472   1.401       .  A
N1464      O1479   1.262       .  A
N1464      O1480   1.262       .  A
N1466      O1477   1.262       .  A
N1466      O1478   1.262       .  A
C1468      C1469   1.400       .  A
C1468      N1473   1.430       .  S
C1469      C1470   1.408       .  A
C1469      H1474   1.086       .  S
C1470      C1471   1.419       .  A
C1471      C1472   1.400       .  A
C1471      N1475   1.432       .  S
C1472      H1476   1.086       .  S
N1473      O1483   1.262       .  A
N1473      O1484   1.262       .  A
N1475      O1481   1.262       .  A
N1475      O1482   1.262       .  A
O1485     Cr1503   2.002       .  S
O1485      C1493   1.266       .  A
O1486     Cr1503   1.975       .  S
O1486      C1487   1.260       .  A
C1487      O1488   1.265       .  A
C1487      C1654   1.483       .  S
O1488     Cr1504   2.001       .  S
O1489     Cr1504   1.982       .  S
O1489      C1490   1.261       .  A
C1490      O1491   1.266       .  A
C1490      C1542   1.488       .  S
O1491     Cr1505   2.003       .  S
O1492     Cr1505   1.976       .  S
O1492      C1493   1.260       .  A
C1493      C1626   1.487       .  S
O1494     Cr1503   1.976       .  S
O1494      C1502   1.260       .  A
O1495     Cr1503   2.004       .  S
O1495      C1496   1.264       .  A
C1496      O1497   1.261       .  A
C1496      C1682   1.489       .  S
O1497     Cr1504   1.976       .  S
O1498     Cr1504   2.004       .  S
O1498      C1499   1.265       .  A
C1499      O1500   1.261       .  A
C1499      C1561   1.483       .  S
O1500     Cr1505   1.975       .  S
O1501     Cr1505   2.004       .  S
O1501      C1502   1.265       .  A
C1502      C1598   1.487       .  S
Cr1503     O1506   1.769       .  S
Cr1504     O1506   1.769       .  S
Cr1505     O1506   1.768       .  S
O1507     Cr1525   2.003       .  S
O1507      C1515   1.265       .  A
O1508     Cr1525   1.976       .  S
O1508      C1509   1.260       .  A
C1509      O1510   1.266       .  A
C1509      C1673   1.483       .  S
O1510     Cr1526   2.005       .  S
O1511     Cr1526   1.976       .  S
O1511      C1512   1.259       .  A
C1512      O1513   1.265       .  A
C1512      C1570   1.478       .  S
O1513     Cr1527   2.004       .  S
O1514     Cr1527   1.981       .  S
O1514      C1515   1.262       .  A
C1515      C1589   1.484       .  S
O1516     Cr1525   1.976       .  S
O1516      C1524   1.261       .  A
O1517     Cr1525   2.004       .  S
O1517      C1518   1.266       .  A
C1518      O1519   1.259       .  A
C1518      C1645   1.488       .  S
O1519     Cr1526   1.974       .  S
O1520     Cr1526   2.009       .  S
O1520      C1521   1.266       .  A
C1521      O1522   1.262       .  A
C1521      C1533   1.491       .  S
O1522     Cr1527   1.977       .  S
O1523     Cr1527   2.005       .  S
O1523      C1524   1.265       .  A
C1524      C1617   1.486       .  S
Cr1525     O1528   1.767       .  S
Cr1526     O1528   1.767       .  S
Cr1527     O1528   1.767       .  S
C1529      C1530   1.401       .  A
C1529      C1534   1.400       .  A
C1529      H1539   1.086       .  S
C1530      C1531   1.408       .  A
C1531      C1532   1.402       .  A
C1532      C1533   1.409       .  A
C1532      H1537   1.086       .  S
C1533      C1534   1.419       .  A
C1534      N1538   1.431       .  S
C1535      C1540   1.408       .  A
C1535      C1544   1.404       .  A
N1536      O1552   1.262       .  A
N1538      O1549   1.262       .  A
N1538      O1550   1.262       .  A
C1540      C1541   1.398       .  A
C1541      C1542   1.407       .  A
C1541      H1546   1.086       .  S
C1542      C1543   1.416       .  A
C1543      C1544   1.403       .  A
C1543      N1547   1.430       .  S
N1545      O1555   1.262       .  A
N1545      O1556   1.262       .  A
N1547      O1553   1.262       .  A
N1547      O1554   1.262       .  A
C1557      C1558   1.398       .  A
C1557      C1562   1.398       .  A
C1557      H1567   1.085       .  S
C1558      C1559   1.406       .  A
C1559      C1560   1.400       .  A
C1559      N1564   1.429       .  S
C1560      C1561   1.407       .  A
C1560      H1565   1.085       .  S
C1561      C1562   1.417       .  A
C1562      N1566   1.430       .  S
C1563      C1568   1.405       .  A
C1563      C1572   1.401       .  A
N1564      O1579   1.262       .  A
N1566      O1577   1.262       .  A
N1566      O1578   1.262       .  A
C1568      C1569   1.397       .  A
C1569      C1570   1.405       .  A
C1569      H1574   1.085       .  S
C1570      C1571   1.413       .  A
C1571      C1572   1.401       .  A
C1571      N1575   1.430       .  S
C1572      H1576   1.085       .  S
N1573      O1583   1.262       .  A
N1573      O1584   1.262       .  A
N1575      O1581   1.262       .  A
N1575      O1582   1.262       .  A
C1585      C1586   1.398       .  A
C1585      C1590   1.399       .  A
C1586      C1587   1.405       .  A
C1587      C1588   1.400       .  A
C1587      N1592   1.428       .  S
C1588      C1589   1.407       .  A
C1588      H1593   1.085       .  S
C1589      C1590   1.418       .  A
C1590      N1594   1.430       .  S
C1591      C1596   1.403       .  A
C1591      C1600   1.399       .  A
N1592      O1607   1.261       .  A
N1592      O1608   1.262       .  A
N1594      O1606   1.262       .  A
C1596      C1597   1.398       .  A
C1596      N1601   1.430   1_565  S
C1597      C1598   1.409       .  A
C1597      H1602   1.085       .  S
C1598      C1599   1.419       .  A
C1599      C1600   1.403       .  A
C1599      N1603   1.434       .  S
C1600      H1604   1.086       .  S
N1601      O1611   1.262       .  A
N1603      O1609   1.263       .  A
N1603      O1610   1.262       .  A
C1613      C1614   1.398       .  A
C1613      C1618   1.398       .  A
C1614      C1615   1.405       .  A
C1615      C1616   1.401       .  A
C1616      C1617   1.408       .  A
C1616      H1621   1.085       .  S
C1617      C1618   1.418       .  A
C1618      N1622   1.430       .  S
C1619      C1624   1.404       .  A
C1619      C1628   1.401       .  A
N1620      O1635   1.262       .  A
N1620      O1636   1.262       .  A
N1622      O1634   1.262       .  A
C1624      C1625   1.396       .  A
C1625      C1626   1.408       .  A
C1625      H1630   1.085       .  S
C1626      C1627   1.417       .  A
C1627      C1628   1.402       .  A
C1627      N1631   1.431       .  S
N1629      O1639   1.262       .  A
N1629      O1640   1.262       .  A
N1631      O1637   1.262       .  A
C1641      C1642   1.400       .  A
C1641      C1646   1.402       .  A
C1642      C1643   1.405       .  A
C1643      C1644   1.397       .  A
C1643      N1648   1.431       .  S
C1644      C1645   1.408       .  A
C1644      H1649   1.085       .  S
C1645      C1646   1.419       .  A
C1646      N1650   1.431       .  S
C1647      C1652   1.406       .  A
C1647      C1656   1.399       .  A
N1648      O1663   1.262       .  A
N1648      O1664   1.262       .  A
N1650      O1662   1.262       .  A
C1652      C1653   1.400       .  A
C1652      N1657   1.429   1_556  S
C1653      C1654   1.407       .  A
C1653      H1658   1.085       .  S
C1654      C1655   1.417       .  A
C1655      C1656   1.398       .  A
C1655      N1659   1.432       .  S
N1657      O1667   1.262       .  A
N1659      O1665   1.263       .  A
N1659      O1666   1.262       .  A
C1669      C1670   1.403       .  A
C1669      C1674   1.401       .  A
C1669      H1679   1.086       .  S
C1670      C1675   1.483       .  S
C1670      C1671   1.409       .  A
C1671      C1672   1.398       .  A
C1671      N1676   1.432       .  S
C1672      C1673   1.406       .  A
C1672      H1677   1.086       .  S
C1673      C1674   1.415       .  A
C1674      N1678   1.431       .  S
C1675      C1680   1.407       .  A
C1675      C1684   1.401       .  A
N1676      O1691   1.262       .  A
N1676      O1692   1.262       .  A
N1678      O1689   1.262       .  A
N1678      O1690   1.262       .  A
C1680      C1681   1.400       .  A
C1680      N1685   1.430       .  S
C1681      C1682   1.408       .  A
C1681      H1686   1.086       .  S
C1682      C1683   1.420       .  A
C1683      C1684   1.400       .  A
C1683      N1687   1.432       .  S
C1684      H1688   1.086       .  S
N1685      O1695   1.262       .  A
N1685      O1696   1.262       .  A
N1687      O1693   1.262       .  A
N1687      O1694   1.262       .  A
