geometry optimzed in LAMMPS
_audit_creation_date              2020-11-30 
_audit_creation_method            'lammps2cif' 
_symmetry_space_group_name_H-M    'P1' 
_symmetry_Int_Tables_number       1 
_symmetry_cell_setting            triclinic 
loop_ 
_symmetry_equiv_pos_as_xyz 
  x,y,z 
_cell_length_a                    25.46473602 
_cell_length_b                    27.574211362251397 
_cell_length_c                    36.92708234055846 
_cell_angle_alpha                 89.71811765445139 
_cell_angle_beta                  90.15405776184375 
_cell_angle_gamma                 118.18632033631845 
loop_ 
_atom_site_label 
_atom_site_type_symbol 
_atom_site_fract_x 
_atom_site_fract_y 
_atom_site_fract_z 
_atom_site_charge 
O1          O  0.06857341  0.31778635  0.21559499    -0.81000
C2          C  0.21690958  0.27475479  0.30634032     0.98400
O3          O  0.16241709  0.25660248  0.30052947    -0.70100
O4          O  0.06287040  0.25320540  0.28227168    -0.73700
Al5        Al  0.13025004  0.25875420  0.25536545     1.49000
C6          C  0.05272739  0.28868779  0.29787220     0.93600
O7          O  0.18337394  0.43029473  0.28078620    -0.79900
O8          O  0.26167709  0.42864816  0.22724432    -0.73500
Al9        Al  0.12978932  0.37057348  0.24846068     1.90100
O10         O  0.24691401  0.40215628  0.29925797    -0.72500
O11         O  0.25587055  0.33378274  0.21448218    -0.72400
O12         O  0.25518230  0.31261613  0.28685468    -0.78000
O13         O  0.18993065  0.24890500  0.22850830    -0.76200
O14         O  0.16899122  0.33188888  0.25341739    -1.12400
O15         O  0.09317873  0.25179232  0.21068943    -0.71600
C16         C  0.06281810  0.27412266  0.20041038     0.99200
C17         C  0.22444379  0.43390254  0.30224862     0.95600
Al18       Al  0.24817505  0.36641584  0.25670988     1.55600
O19         O  0.08180395  0.33878372  0.28965792    -0.76200
C20         C  0.23312966  0.28286354  0.20934776     0.99700
C21         C  0.22899554  0.43682245  0.20503265     0.94600
O22         O  0.17311185  0.40829031  0.20647186    -0.81500
O23         O  0.35000634  0.08698135  0.11717471    -0.81000
C24         C  0.26165888  0.21552162  0.04304577     0.98400
O25         O  0.23094197  0.17175184  0.06100634    -0.70100
O26         O  0.24466433  0.08805981  0.04160343    -0.73700
Al27       Al  0.25086997  0.12097445  0.08680134     1.49000
C28         C  0.27395277  0.06543827  0.03013894     0.93600
O29         O  0.41212592  0.17678492  0.03340343    -0.79900
O30         O  0.40862095  0.23729911  0.12889908    -0.73100
Al31       Al  0.37738363  0.13321624  0.07561688     1.90100
O32         O  0.42591214  0.25538459  0.05581564    -0.72500
O33         O  0.30425650  0.23479980  0.12190896    -0.72400
O34         O  0.31730151  0.24277767  0.04803769    -0.78000
O35         O  0.24545096  0.14772919  0.13274303    -0.76200
O36         O  0.32972247  0.16332315  0.08348220    -1.12400
O37         O  0.25468994  0.06177764  0.11317240    -0.71600
C38         C  0.29727030  0.05677105  0.12743396     0.99200
C39         C  0.43793278  0.22878891  0.03267881     0.95600
Al40       Al  0.36120194  0.23621171  0.08828596     1.55600
O41         O  0.32350695  0.07585766  0.04411614    -0.76200
C42         C  0.26459713  0.19728839  0.14081578     0.99700
C43         C  0.44464968  0.21769076  0.12918715     0.94600
O44         O  0.44115660  0.18321824  0.10567345    -0.81500
C45         C  0.48418041  0.26039906  0.00564612    -0.15600
C46         C  0.00586837  0.27211477  0.32579491    -0.30800
H47         H  0.50034463  0.30456628  0.00411092     0.13400
H48         H  0.98828364  0.30022145  0.33179308     0.14000
C49         C  0.01961274  0.24595228  0.17085596    -0.15600
C50         C  0.49248593  0.23452130  0.15657202    -0.30800
H51         H  0.02410250  0.21412920  0.15605120     0.13400
H52         H  0.52220232  0.21648867  0.15469407     0.14000
C53         C  0.28594614  0.01558187  0.15680330    -0.15600
C54         C  0.25765023  0.48060240  0.17760614    -0.30800
H55         H  0.32325906  0.01154240  0.16785626     0.13400
H56         H  0.30454157  0.49496336  0.17193046     0.14000
C57         C  0.24987534  0.47624507  0.33070171    -0.15600
C58         C  0.24788631  0.02514160  0.00077998    -0.30800
H59         H  0.28047569  0.47249627  0.34969427     0.13400
H60         H  0.20753208  0.02108310  0.98796206     0.14000
C61         C  0.23095958  0.23384597  0.01589386    -0.15600
C62         C  0.23456360  0.24938080  0.33538900    -0.30800
H63         H  0.18318777  0.20832918  0.01265048     0.13400
H64         H  0.19949570  0.22089839  0.35319228     0.14000
C65         C  0.23917458  0.21176114  0.17198688    -0.15600
C66         C  0.25880807  0.26460445  0.18053450    -0.30800
H67         H  0.20323557  0.17924284  0.18722572     0.13400
H68         H  0.29489451  0.29672296  0.16510192     0.14000
O69         O  0.05794754  0.33424149  0.55914860    -0.81000
C70         C  0.22497526  0.28751370  0.62341287     0.98400
O71         O  0.16872596  0.26594519  0.62219967    -0.70100
O72         O  0.06560451  0.26527517  0.61473098    -0.73700
Al73       Al  0.12364752  0.26927490  0.58215097     1.49000
C74         C  0.06203379  0.29915715  0.63565623     0.93600
O75         O  0.18955274  0.43970802  0.61361299    -0.79900
O76         O  0.24376900  0.42978469  0.53782674    -0.73500
Al77       Al  0.12768271  0.38292462  0.58605523     1.90100
O78         O  0.26460284  0.42202938  0.61107037    -0.72500
O79         O  0.23588958  0.33077327  0.52829021    -0.72400
O80         O  0.25748224  0.32535910  0.60148488    -0.78000
O81         O  0.16927763  0.25203473  0.55009269    -0.76200
O82         O  0.16540711  0.34267180  0.57942567    -1.12400
O83         O  0.07575191  0.26667834  0.54250319    -0.71600
C84         C  0.04668159  0.29309210  0.53941551     0.99200
C85         C  0.24025663  0.44831458  0.62438788     0.95600
Al86       Al  0.24362767  0.37446645  0.57033831     1.55600
O87         O  0.09464436  0.34983683  0.63121559    -0.76200
C88         C  0.20912604  0.27883175  0.52755810     0.99700
C89         C  0.20411099  0.44221637  0.52738006     0.94600
O90         O  0.15419896  0.42178345  0.54243704    -0.81500
O91         O  0.32548642  0.07613383  0.46152538    -0.81000
C92         C  0.30535206  0.22986912  0.36834482     0.98400
O93         O  0.26400233  0.19371751  0.38746478    -0.70100
O94         O  0.24509477  0.09268072  0.37800442    -0.73700
Al95       Al  0.25972303  0.13763828  0.41980353     1.49000
C96         C  0.26411373  0.05930245  0.37030628     0.93600
O97         O  0.41251557  0.14418800  0.37636436    -0.79900
O98         O  0.42188024  0.22958897  0.46366747    -0.73100
Al99       Al  0.36733727  0.11344919  0.41932725     1.90100
O100        O  0.45018885  0.22967619  0.39348714    -0.72500
O101        O  0.34017673  0.25652643  0.44472757    -0.72400
O102        O  0.35923962  0.24335865  0.37431402    -0.78000
O103        O  0.26265153  0.18027132  0.46137581    -0.76200
O104        O  0.33800726  0.16094188  0.41958903    -1.12400
O105        O  0.24058486  0.07670807  0.45208596    -0.71600
C106        C  0.27118014  0.05869177  0.46886289     0.99200
C107        C  0.45003786  0.19401589  0.37244539     0.95600
Al108      Al  0.38834176  0.23315759  0.41914734     1.55600
O109        O  0.30726887  0.06001958  0.38782068    -0.76200
C110        C  0.29403120  0.23192274  0.46349154     0.99700
C111        C  0.44753417  0.20080487  0.46946826     0.94600
O112        O  0.43430807  0.15770076  0.45106570    -0.81500
C113        C  0.49366782  0.21216804  0.34283505    -0.15600
C114        C  0.01782501  0.27859026  0.66462852    -0.30800
H115        H  0.49341731  0.18197044  0.32395316     0.13400
H116        H  0.01704753  0.30772817  0.68404664     0.14000
C117        C  0.99882987  0.27579336  0.51236903    -0.15600
C118        C  0.49560212  0.21944504  0.49678639    -0.30800
H119        H  0.98577234  0.30557392  0.50218820     0.13400
H120        H  0.51471925  0.19267889  0.50347667     0.14000
C121        C  0.24193716  0.01543710  0.49670458    -0.15600
C122        C  0.21527944  0.48217597  0.49770270    -0.30800
H123        H  0.19464375  0.00024260  0.50143776     0.13400
H124        H  0.17791268  0.48601071  0.48647498     0.14000
C125        C  0.27131952  0.48897120  0.65348269    -0.15600
C126        C  0.23487226  0.01913776  0.34034994    -0.30800
H127        H  0.31263350  0.49237151  0.66429041     0.13400
H128        H  0.19812862  0.02030448  0.32607391     0.14000
C129        C  0.29052106  0.25791711  0.33942735    -0.15600
C130        C  0.25445610  0.26879839  0.65037527    -0.30800
H131        H  0.32575420  0.28612192  0.32162160     0.13400
H132        H  0.30282682  0.29072927  0.65131732     0.14000
C133        C  0.27803082  0.26576734  0.48721092    -0.15600
C134        C  0.22382760  0.24681890  0.50153172    -0.30800
H135        H  0.31161897  0.30793209  0.49242407     0.13400
H136        H  0.19059968  0.20438443  0.49674861     0.14000
O137        O  0.04981251  0.31727223  0.89314287    -0.81000
C138        C  0.22926574  0.29591863  0.96646651     0.98400
O139        O  0.17395145  0.26799514  0.96097039    -0.70100
O140        O  0.06702557  0.26029001  0.95240395    -0.73700
Al141      Al  0.12988270  0.26887084  0.91910038     1.49000
C142        C  0.05846496  0.29494531  0.97065635     0.93600
O143        O  0.16876455  0.43938790  0.94087473    -0.79900
O144        O  0.23849902  0.43797563  0.88303683    -0.73500
Al145      Al  0.11569597  0.37409542  0.91689019     1.90100
O146        O  0.24160118  0.42344466  0.95769013    -0.72500
O147        O  0.24985416  0.34924800  0.87362329    -0.72400
O148        O  0.26008290  0.33832321  0.94749412    -0.78000
O149        O  0.18602476  0.26348380  0.88639354    -0.76200
O150        O  0.16251119  0.34196976  0.91722644    -1.12400
O151        O  0.08191871  0.25977558  0.87717718    -0.71600
C152        C  0.04623604  0.27914683  0.87327502     0.99200
C153        C  0.21188439  0.44894889  0.96133847     0.95600
Al154      Al  0.24111553  0.38380502  0.91562787     1.55600
O155        O  0.08428852  0.34525275  0.96254834    -0.76200
C156        C  0.22810911  0.29862126  0.86719123     0.99700
C157        C  0.19714501  0.43825981  0.86379237     0.94600
O158        O  0.14325716  0.40631157  0.87092535    -0.81500
O159        O  0.34391342  0.09995503  0.79267403    -0.81000
C160        C  0.25520080  0.20964198  0.70049682     0.98400
O161        O  0.22486227  0.17111157  0.72248292    -0.70100
O162        O  0.24146080  0.08608052  0.70958457    -0.73700
Al163      Al  0.24584365  0.12467557  0.75221107     1.49000
C164        C  0.27004955  0.06045423  0.70280264     0.93600
O165        O  0.40616190  0.16702400  0.70311167    -0.79900
O166        O  0.40073578  0.25165477  0.78666524    -0.73100
Al167      Al  0.37179536  0.13553922  0.74791651     1.90100
O168        O  0.42204570  0.25098876  0.71327305    -0.72500
O169        O  0.29626118  0.24439149  0.77617095    -0.72400
O170        O  0.31129475  0.23456665  0.70235514    -0.78000
O171        O  0.24229465  0.15943765  0.79531310    -0.76200
O172        O  0.32433072  0.16648051  0.74829001    -1.12400
O173        O  0.24861717  0.06827388  0.78268096    -0.71600
C174        C  0.29079388  0.06701284  0.80022544     0.99200
C175        C  0.43351587  0.21747229  0.69589108     0.95600
Al176      Al  0.35501368  0.23933586  0.74475134     1.55600
O177        O  0.31741253  0.07084379  0.72011929    -0.76200
C178        C  0.25952845  0.21015547  0.79861957     0.99700
C179        C  0.43672378  0.23374359  0.79346824     0.94600
O180        O  0.43528213  0.19369336  0.77575772    -0.81500
C181        C  0.48024205  0.23541971  0.66748463    -0.15600
C182        C  0.01591497  0.27754727  0.00090693    -0.30800
H183        H  0.48114870  0.20338253  0.65088530     0.13400
H184        H  0.01134923  0.30941898  0.01560312     0.14000
C185        C  0.99941018  0.25893085  0.84560565    -0.15600
C186        C  0.48042508  0.26114741  0.82260086    -0.30800
H187        H  0.96801330  0.27526332  0.84622744     0.13400
H188        H  0.47768356  0.29385180  0.83741207     0.14000
C189        C  0.27949880  0.02617412  0.82927173    -0.15600
C190        C  0.21143004  0.47750922  0.83336498    -0.30800
H191        H  0.31777797  0.02783453  0.84344016     0.13400
H192        H  0.17518577  0.47790979  0.81800242     0.14000
C193        C  0.22546096  0.49001336  0.98962209    -0.15600
C194        C  0.24593122  0.01803484  0.67425485    -0.30800
H195        H  0.19392148  0.50566673  0.99372576     0.13400
H196        H  0.21012703  0.01713266  0.65769832     0.14000
C197        C  0.22429389  0.22640813  0.67317641    -0.15600
C198        C  0.25957428  0.27920252  0.99488074    -0.30800
H199        H  0.17594526  0.20418589  0.67226457     0.13400
H200        H  0.30737684  0.30463724  0.99803435     0.14000
C201        C  0.23472421  0.22814369  0.82883311    -0.15600
C202        C  0.25311153  0.28125457  0.83670819    -0.30800
H203        H  0.20052531  0.19629173  0.84544306     0.13400
H204        H  0.28789733  0.31317613  0.82045675     0.14000
O205        O  0.05791607  0.83173205  0.22085736    -0.81000
C206        C  0.20708637  0.77417694  0.29616496     0.98400
O207        O  0.15382520  0.75379688  0.28635693    -0.70100
O208        O  0.05708428  0.76016151  0.27586591    -0.73700
Al209      Al  0.12144836  0.76683312  0.24453264     1.49000
C210        C  0.05453897  0.79404763  0.29806528     0.93600
O211        O  0.18243435  0.93872981  0.28164110    -0.79900
O212        O  0.25287775  0.93518662  0.21793951    -0.73500
Al213      Al  0.12524349  0.88009420  0.25092875     1.90100
O214        O  0.24843041  0.91154576  0.29295967    -0.72500
O215        O  0.25084365  0.84013735  0.20684662    -0.72400
O216        O  0.24713682  0.81739765  0.28093185    -0.78000
O217        O  0.17689689  0.75699900  0.21324440    -0.76200
O218        O  0.16368239  0.84011896  0.24824531    -1.12400
O219        O  0.08297028  0.77045960  0.20190341    -0.71600
C220        C  0.05051193  0.79326037  0.19942767     0.99200
C221        C  0.22592662  0.94218669  0.30013694     0.95600
Al222      Al  0.24304556  0.87328617  0.24956544     1.55600
O223        O  0.08645360  0.84499437  0.29381786    -0.76200
C224        C  0.22486342  0.79044621  0.19780424     0.99700
C225        C  0.21492520  0.94415421  0.20048329     0.94600
O226        O  0.16051875  0.91890970  0.20851516    -0.81500
O227        O  0.30837151  0.55984393  0.12138289    -0.81000
C228        C  0.26469040  0.69970034  0.02838597     0.98400
O229        O  0.24136096  0.64907567  0.03496746    -0.70100
O230        O  0.24496827  0.55831034  0.04984375    -0.73700
Al231      Al  0.24280004  0.61441469  0.07902015     1.49000
C232        C  0.28642284  0.54975963  0.03796925     0.93600
O233        O  0.43221756  0.66735713  0.06310100    -0.79900
O234        O  0.42056888  0.73842884  0.11569997    -0.73100
Al235      Al  0.36530494  0.61785350  0.09184965     1.90100
O236        O  0.40785618  0.72888970  0.04233720    -0.72500
O237        O  0.31336814  0.73216264  0.12174550    -0.72400
O238        O  0.30668424  0.73354911  0.04767787    -0.78000
O239        O  0.22584962  0.66334163  0.10762833    -0.76200
O240        O  0.32197835  0.65274784  0.08424480    -1.12400
O241        O  0.23032458  0.57301567  0.12204743    -0.71600
C242        C  0.25769859  0.54838419  0.13363916     0.99200
C243        C  0.44031907  0.70552698  0.04113614     0.95600
Al244      Al  0.35870218  0.72661629  0.08209526     1.55600
O245        O  0.33841658  0.57543932  0.05004681    -0.76200
C246        C  0.25743522  0.70563369  0.12627816     0.99700
C247        C  0.42812322  0.70706049  0.13754045     0.94600
O248        O  0.39801527  0.65577607  0.13507596    -0.81500
C249        C  0.48852876  0.72202134  0.01389030    -0.15600
C250        C  0.01370315  0.77537334  0.32928184    -0.30800
H251        H  0.50222472  0.69191520  0.00564447     0.13400
H252        H  0.00968431  0.80664224  0.34504771     0.14000
C253        C  0.00228370  0.77368627  0.17207737    -0.15600
C254        C  0.47444413  0.72963891  0.16520883    -0.30800
H255        H  0.97602008  0.79520791  0.16985666     0.13400
H256        H  0.47399069  0.70135919  0.18597556     0.14000
C257        C  0.22878250  0.50464640  0.16116314    -0.15600
C258        C  0.23110376  0.98488664  0.17048309    -0.30800
H259        H  0.18268407  0.49205210  0.16814675     0.13400
H260        H  0.19455460  0.98987780  0.15905157     0.14000
C261        C  0.25273732  0.98229169  0.33030561    -0.15600
C262        C  0.27462310  0.50882646  0.00974250    -0.30800
H263        H  0.28967218  0.98161054  0.34468276     0.13400
H264        H  0.30759626  0.49514180  0.00476548     0.14000
C265        C  0.24020132  0.71921740  0.99888219    -0.15600
C266        C  0.22018199  0.74478848  0.32565598    -0.30800
H267        H  0.19728561  0.69018476  0.98766120     0.13400
H268        H  0.18299960  0.70871389  0.33739339     0.14000
C269        C  0.22715858  0.72278833  0.15392018    -0.15600
C270        C  0.25353218  0.77258880  0.16958613    -0.30800
H271        H  0.18151363  0.69388833  0.16106105     0.13400
H272        H  0.29834106  0.80209235  0.16126387     0.14000
O273        O  0.07739634  0.83837180  0.55411420    -0.81000
C274        C  0.21488180  0.76956188  0.63327352     0.98400
O275        O  0.16220476  0.75185597  0.62305067    -0.70100
O276        O  0.06912229  0.76339577  0.61048845    -0.73700
Al277      Al  0.13389833  0.76808758  0.58049603     1.49000
C278        C  0.06551068  0.79809552  0.63151128     0.93600
O279        O  0.19985249  0.93933630  0.61786921    -0.79900
O280        O  0.27388859  0.93652880  0.56249492    -0.73500
Al281      Al  0.14332157  0.88381795  0.58573189     1.90100
O282        O  0.25768252  0.90494163  0.63501114    -0.72500
O283        O  0.26690825  0.84200345  0.54668504    -0.72400
O284        O  0.25656213  0.81201032  0.61884475    -0.78000
O285        O  0.19100547  0.75891242  0.55000033    -0.76200
O286        O  0.17813599  0.84083029  0.58538795    -1.12400
O287        O  0.09748938  0.77312712  0.53719752    -0.71600
C288        C  0.06657295  0.79741070  0.53429588     0.99200
C289        C  0.23881447  0.93921818  0.63919510     0.95600
Al290      Al  0.25700959  0.87113148  0.59034920     1.55600
O291        O  0.09876621  0.84895384  0.62732878    -0.76200
C292        C  0.24002323  0.79327489  0.53572281     0.99700
C293        C  0.24189697  0.94878187  0.54192520     0.94600
O294        O  0.18572388  0.92337641  0.54424351    -0.81500
O295        O  0.34025279  0.58696877  0.45174574    -0.81000
C296        C  0.28903049  0.73017072  0.36657857     0.98400
O297        O  0.24949089  0.68780942  0.38284702    -0.70100
O298        O  0.24982594  0.59546457  0.36701000    -0.73700
Al299      Al  0.25557083  0.63041042  0.41169125     1.49000
C300        C  0.26944826  0.56224975  0.36122268     0.93600
O301        O  0.40887796  0.65702182  0.36542631    -0.79900
O302        O  0.41727171  0.73294349  0.45743746    -0.73100
Al303      Al  0.37261604  0.62355163  0.40873323     1.90100
O304        O  0.43966045  0.74245808  0.38316105    -0.72500
O305        O  0.32158488  0.74510568  0.44830283    -0.72400
O306        O  0.34287506  0.74928806  0.37462336    -0.78000
O307        O  0.25023522  0.66067870  0.45591020    -0.76200
O308        O  0.33476269  0.66363310  0.41207073    -1.12400
O309        O  0.24700751  0.56651431  0.44077148    -0.71600
C310        C  0.28574848  0.55872448  0.45831746     0.99200
C311        C  0.44215793  0.70777408  0.36157197     0.95600
Al312      Al  0.37678496  0.73644989  0.41568511     1.55600
O313        O  0.31243472  0.56460123  0.37986503    -0.76200
C314        C  0.27547571  0.71028822  0.46498543     0.99700
C315        C  0.45043536  0.71070892  0.45851058     0.94600
O316        O  0.44198483  0.67222411  0.43690452    -0.81500
C317        C  0.48604855  0.72494672  0.33242299    -0.15600
C318        C  0.02222893  0.78007692  0.66156202    -0.30800
H319        H  0.49949967  0.69513157  0.32304038     0.13400
H320        H  0.02046736  0.81153859  0.67834901     0.14000
C321        C  0.01573361  0.77662940  0.50870690    -0.15600
C322        C  0.50018621  0.73038942  0.48463112    -0.30800
H323        H  0.99485036  0.80241342  0.50351548     0.13400
H324        H  0.52373728  0.70650356  0.48789582     0.14000
C325        C  0.27044119  0.51582166  0.48634050    -0.15600
C326        C  0.27147580  0.99371544  0.51525388    -0.30800
H327        H  0.30745957  0.51247429  0.49865440     0.13400
H328        H  0.31899221  0.00959003  0.51102653     0.14000
C329        C  0.26436188  0.98045084  0.66853500    -0.15600
C330        C  0.24028229  0.51984634  0.33300242    -0.30800
H331        H  0.29922443  0.98020001  0.68543223     0.13400
H332        H  0.20960546  0.52403880  0.31433337     0.14000
C333        C  0.27509961  0.75997034  0.33779627    -0.15600
C334        C  0.22644855  0.73905264  0.66233187    -0.30800
H335        H  0.31222714  0.79586911  0.32585013     0.13400
H336        H  0.18886874  0.70330868  0.67405601     0.14000
C337        C  0.24822268  0.72597207  0.49505294    -0.15600
C338        C  0.26814939  0.77791631  0.50596311    -0.30800
H339        H  0.20946060  0.69332245  0.50825947     0.13400
H340        H  0.30719865  0.81058378  0.49300484     0.14000
O341        O  0.06612241  0.82709923  0.89513280    -0.81000
C342        C  0.23989396  0.79111147  0.95932367     0.98400
O343        O  0.18385922  0.76728660  0.95638844    -0.70100
O344        O  0.07677796  0.76120321  0.94933287    -0.73700
Al345      Al  0.14059072  0.77108031  0.91597785     1.49000
C346        C  0.07027245  0.79425753  0.97036998     0.93600
O347        O  0.19308806  0.94057903  0.94874586    -0.79900
O348        O  0.25530391  0.94099632  0.88187595    -0.73500
Al349      Al  0.13424802  0.87970375  0.92155797     1.90100
O350        O  0.26688397  0.92143931  0.95441643    -0.72500
O351        O  0.25617812  0.84827778  0.86692912    -0.72400
O352        O  0.27239388  0.83204092  0.93950344    -0.78000
O353        O  0.19534995  0.76343283  0.88279633    -0.76200
O354        O  0.17715179  0.84452093  0.91624932    -1.12400
O355        O  0.09397626  0.76773054  0.87529048    -0.71600
C356        C  0.05952971  0.78882082  0.87389064     0.99200
C357        C  0.24156431  0.94900835  0.96341276     0.95600
Al358      Al  0.25597766  0.88245684  0.91107907     1.55600
O359        O  0.10231734  0.84536773  0.96656690    -0.76200
C360        C  0.23622047  0.79747481  0.86242078     0.99700
C361        C  0.21326072  0.94645273  0.86719694     0.94600
O362        O  0.16033538  0.91755540  0.87733155    -0.81500
O363        O  0.34074743  0.57977132  0.78891391    -0.81000
C364        C  0.29501117  0.72519453  0.70329858     0.98400
O365        O  0.25480835  0.68358819  0.71971322    -0.70100
O366        O  0.25384899  0.59072301  0.70466551    -0.73700
Al367      Al  0.25910183  0.62633926  0.74893798     1.49000
C368        C  0.27597563  0.55987843  0.69713814     0.93600
O369        O  0.41521596  0.65437797  0.70426375    -0.79900
O370        O  0.41755023  0.72729495  0.79679969    -0.73100
Al371      Al  0.37626380  0.61889248  0.74682746     1.90100
O372        O  0.44554832  0.73873802  0.72342629    -0.72500
O373        O  0.32380625  0.74164877  0.78397846    -0.72400
O374        O  0.34880712  0.74414707  0.71157290    -0.78000
O375        O  0.25310847  0.65756530  0.79309745    -0.76200
O376        O  0.33825528  0.65892305  0.74990414    -1.12400
O377        O  0.24864145  0.56290012  0.77794834    -0.71600
C378        C  0.28601791  0.55384012  0.79573746     0.99200
C379        C  0.44761985  0.70530172  0.70070257     0.95600
Al380      Al  0.38038672  0.73181175  0.75377966     1.55600
O381        O  0.31877227  0.56178789  0.71567170    -0.76200
C382        C  0.27746208  0.70782455  0.80072404     0.99700
C383        C  0.44975290  0.70410913  0.79925226     0.94600
O384        O  0.44314627  0.66645287  0.77729575    -0.81500
C385        C  0.48839816  0.72455552  0.66971252    -0.15600
C386        C  0.02344806  0.77429792  0.99876243    -0.30800
H387        H  0.49318364  0.69374380  0.65387098     0.13400
H388        H  0.02512703  0.80378303  0.01875885     0.14000
C389        C  0.01040053  0.76893348  0.84763988    -0.15600
C390        C  0.49685004  0.72226288  0.82718490    -0.30800
H391        H  0.98306868  0.78953172  0.84685317     0.13400
H392        H  0.52325786  0.70086727  0.82919071     0.14000
C393        C  0.26799131  0.51273596  0.82504580    -0.15600
C394        C  0.22461484  0.98731625  0.83817475    -0.30800
H395        H  0.30377762  0.51138817  0.84039616     0.13400
H396        H  0.18629559  0.98608130  0.82431836     0.14000
C397        C  0.27007418  0.99171273  0.99117386    -0.15600
C398        C  0.24891034  0.52058527  0.66696700    -0.30800
H399        H  0.31006406  0.99533966  0.00424404     0.13400
H400        H  0.20823850  0.51766251  0.65539336     0.14000
C401        C  0.28143485  0.75425962  0.67430142    -0.15600
C402        C  0.26807335  0.77122976  0.98635727    -0.30800
H403        H  0.31879308  0.78994667  0.66231887     0.13400
H404        H  0.31244604  0.79962896  0.99595235     0.14000
C405        C  0.24978585  0.72608223  0.82916863    -0.15600
C406        C  0.26336159  0.77902332  0.83374121    -0.30800
H407        H  0.21573458  0.69463503  0.84607295     0.13400
H408        H  0.29682006  0.81033937  0.81646668     0.14000
O409        O  0.55687547  0.32443609  0.23226078    -0.81000
C410        C  0.73520010  0.28830759  0.29182133     0.98400
O411        O  0.67934595  0.26265151  0.28781185    -0.70100
O412        O  0.57363702  0.25679810  0.28367612    -0.73700
Al413      Al  0.63415155  0.26905845  0.24881473     1.49000
C414        C  0.56943072  0.28860053  0.30663124     0.93600
O415        O  0.68486554  0.43702386  0.28528399    -0.79900
O416        O  0.74653909  0.44023007  0.21958031    -0.73500
Al417      Al  0.62617904  0.37634846  0.25811733     1.90100
O418        O  0.75761142  0.41670427  0.29153574    -0.72500
O419        O  0.75030728  0.35109598  0.20164788    -0.72400
O420        O  0.76678611  0.33078127  0.27317108    -0.78000
O421        O  0.68679404  0.26536946  0.21402118    -0.76200
O422        O  0.66983520  0.34221927  0.25120837    -1.12400
O423        O  0.58492860  0.26726640  0.20926593    -0.71600
C424        C  0.55017012  0.28813390  0.20938164     0.99200
C425        C  0.73243630  0.44434025  0.30056257     0.95600
Al426      Al  0.74866375  0.38144037  0.24682841     1.55600
O427        O  0.59703320  0.34006866  0.30258550    -0.76200
C428        C  0.72755635  0.30081393  0.19451994     0.99700
C429        C  0.70421104  0.44436461  0.20423528     0.94600
O430        O  0.65113224  0.41540533  0.21424038    -0.81500
O431        O  0.82429355  0.08954833  0.13128088    -0.81000
C432        C  0.76356955  0.21242161  0.03268469     0.98400
O433        O  0.72914313  0.17504902  0.05378412    -0.70100
O434        O  0.74083752  0.08826270  0.04137809    -0.73700
Al435      Al  0.74154171  0.12509626  0.08365380     1.49000
C436        C  0.76652237  0.05949965  0.03675538     0.93600
O437        O  0.90705770  0.15779719  0.04591356    -0.79900
O438        O  0.89699739  0.24579902  0.12469606    -0.73100
Al439      Al  0.86314094  0.12656808  0.08821355     1.90100
O440        O  0.92353563  0.24264269  0.05302218    -0.72500
O441        O  0.79696601  0.24370811  0.10859460    -0.72400
O442        O  0.81920648  0.23399874  0.03635113    -0.78000
O443        O  0.73563984  0.15902133  0.12593985    -0.76200
O444        O  0.82077119  0.16242215  0.08428471    -1.12400
O445        O  0.73348310  0.06569855  0.11325508    -0.71600
C446        C  0.76886894  0.06009892  0.13447719     0.99200
C447        C  0.93486941  0.20777681  0.03759029     0.95600
Al448      Al  0.85636570  0.23547050  0.08085984     1.55600
O449        O  0.80973693  0.06522886  0.05702601    -0.76200
C450        C  0.75621685  0.21012367  0.12930635     0.99700
C451        C  0.92951022  0.22536494  0.13446647     0.94600
O452        O  0.92484381  0.18191975  0.11950961    -0.81500
C453        C  0.98091960  0.22464366  0.00932962    -0.15600
C454        C  0.53029597  0.26623243  0.33795395    -0.30800
H455        H  0.98541401  0.19265196  0.99475451     0.13400
H456        H  0.52957667  0.29612753  0.35675336     0.14000
C457        C  0.50085381  0.27078657  0.18292216    -0.15600
C458        C  0.97361637  0.25499683  0.16335086    -0.30800
H459        H  0.47143434  0.28912348  0.18482155     0.13400
H460        H  0.96891251  0.28667442  0.17819039     0.14000
C461        C  0.74330771  0.01812035  0.16275916    -0.15600
C462        C  0.71621324  0.48353170  0.17430418    -0.30800
H463        H  0.69642776  0.00317456  0.16890579     0.13400
H464        H  0.67913582  0.48811282  0.16333234     0.14000
C465        C  0.75994354  0.48595719  0.32888735    -0.15600
C466        C  0.74256311  0.01833596  0.00757565    -0.30800
H467        H  0.79461862  0.48465210  0.34543887     0.13400
H468        H  0.70512323  0.01662827  0.99234622     0.14000
C469        C  0.73694978  0.23085904  0.00447499    -0.15600
C470        C  0.76460447  0.26969996  0.31911454    -0.30800
H471        H  0.68896528  0.20721355  0.00095499     0.13400
H472        H  0.80897273  0.29893441  0.32825126     0.14000
C473        C  0.73119900  0.22968626  0.15765819    -0.15600
C474        C  0.75049013  0.28318972  0.16381103    -0.30800
H475        H  0.69673503  0.19874647  0.17464993     0.13400
H476        H  0.78531938  0.31433594  0.14714002     0.14000
O477        O  0.57951988  0.33585135  0.55419670    -0.81000
C478        C  0.73801145  0.28612797  0.63167538     0.98400
O479        O  0.68224398  0.26579985  0.62881416    -0.70100
O480        O  0.57944552  0.26725363  0.61895908    -0.73700
Al481      Al  0.64108978  0.27059686  0.58662795     1.49000
C482        C  0.57052515  0.30330570  0.63497883     0.93600
O483        O  0.70189065  0.44239096  0.61445063    -0.79900
O484        O  0.77261225  0.43986912  0.55575303    -0.73500
Al485      Al  0.64445945  0.38499889  0.58401658     1.90100
O486        O  0.76760330  0.41436046  0.62747116    -0.72500
O487        O  0.76269726  0.34363506  0.53987286    -0.72400
O488        O  0.77189460  0.32434785  0.61100943    -0.78000
O489        O  0.69406242  0.25948666  0.55356493    -0.76200
O490        O  0.68183182  0.34409621  0.58471176    -1.12400
O491        O  0.59431270  0.26460811  0.54545132    -0.71600
C492        C  0.56653355  0.29103838  0.53845134     0.99200
C493        C  0.74467446  0.44518005  0.63358764     0.95600
Al494      Al  0.76144567  0.37749082  0.58361656     1.55600
O495        O  0.60101465  0.35344246  0.62704611    -0.76200
C496        C  0.73707649  0.29266985  0.53383842     0.99700
C497        C  0.73826196  0.44952571  0.53608611     0.94600
O498        O  0.68264111  0.42270955  0.54039452    -0.81500
O499        O  0.81030950  0.05908087  0.45102281    -0.81000
C500        C  0.76413635  0.19987915  0.36210930     0.98400
O501        O  0.74153610  0.14921959  0.36865462    -0.70100
O502        O  0.74523763  0.05776887  0.38357897    -0.73700
Al503      Al  0.74415365  0.11513088  0.41263568     1.49000
C504        C  0.78695305  0.05160348  0.36941861     0.93600
O505        O  0.93402047  0.17041012  0.39471770    -0.79900
O506        O  0.92116261  0.23770752  0.45030780    -0.73100
Al507      Al  0.86701490  0.11895170  0.42237030     1.90100
O508        O  0.90806558  0.23149960  0.37563331    -0.72500
O509        O  0.81513078  0.23146646  0.45564776    -0.72400
O510        O  0.80632405  0.23421727  0.38135249    -0.78000
O511        O  0.72707587  0.16412288  0.44130698    -0.76200
O512        O  0.82337114  0.15381557  0.41687961    -1.12400
O513        O  0.73479693  0.07574694  0.45593214    -0.71600
C514        C  0.76198090  0.05009424  0.46582812     0.99200
C515        C  0.94074239  0.20865832  0.37324705     0.95600
Al516      Al  0.85953903  0.22742881  0.41582063     1.55600
O517        O  0.83992911  0.08001518  0.37928297    -0.76200
C518        C  0.75946596  0.20557109  0.46040170     0.99700
C519        C  0.92786501  0.20451059  0.47120025     0.94600
O520        O  0.89949871  0.15362332  0.46620352    -0.81500
C521        C  0.98716516  0.22541953  0.34500437    -0.15600
C522        C  0.52311991  0.28759658  0.66289493    -0.30800
H523        H  0.00739317  0.19900152  0.34040216     0.13400
H524        H  0.52265456  0.31993417  0.67936104     0.14000
C525        C  0.51751340  0.26972137  0.51188533    -0.15600
C526        C  0.97174273  0.22386440  0.50058061    -0.30800
H527        H  0.49836118  0.29636992  0.50487815     0.13400
H528        H  0.98301969  0.19388851  0.51261402     0.14000
C529        C  0.73525790  0.00821906  0.49440114    -0.15600
C530        C  0.76563681  0.49342679  0.50862189    -0.30800
H531        H  0.68909256  0.99523605  0.50145386     0.13400
H532        H  0.81397599  0.51409845  0.50693765     0.14000
C533        C  0.76961827  0.48545487  0.66307829    -0.15600
C534        C  0.77495977  0.01047916  0.34120222    -0.30800
H535        H  0.80581276  0.48575525  0.67891432     0.13400
H536        H  0.81278623  0.00869017  0.32896007     0.14000
C537        C  0.73807960  0.21827879  0.33264334    -0.15600
C538        C  0.76615377  0.26632977  0.65873834    -0.30800
H539        H  0.69503546  0.18844064  0.32202939     0.13400
H540        H  0.81457262  0.28679270  0.65930696     0.14000
C541        C  0.73152317  0.22329141  0.48894811    -0.15600
C542        C  0.76111019  0.27308454  0.50428692    -0.30800
H543        H  0.68618551  0.19536177  0.49726799     0.13400
H544        H  0.80524737  0.30170597  0.49437039     0.14000
O545        O  0.56213507  0.30925932  0.88159134    -0.81000
C546        C  0.73920898  0.29297207  0.95699756     0.98400
O547        O  0.68326471  0.26629647  0.95360190    -0.70100
O548        O  0.57314263  0.24250376  0.93817467    -0.73700
Al549      Al  0.64313284  0.26333545  0.91055482     1.49000
C550        C  0.55689165  0.26873880  0.95882687     0.93600
O551        O  0.66990307  0.42201323  0.94855584    -0.79900
O552        O  0.74432772  0.43496030  0.87865794    -0.73500
Al553      Al  0.61984737  0.36316477  0.91497569     1.90100
O554        O  0.75317210  0.41637409  0.95038429    -0.72500
O555        O  0.75525695  0.34764968  0.86331122    -0.72400
O556        O  0.77043562  0.33324772  0.93642665    -0.78000
O557        O  0.70490367  0.26308214  0.88272877    -0.76200
O558        O  0.67063323  0.33594032  0.91095828    -1.12400
O559        O  0.60154329  0.25554417  0.86735314    -0.71600
C560        C  0.56422627  0.27252231  0.86160365     0.99200
C561        C  0.72086486  0.43564191  0.96233415     0.95600
Al562      Al  0.74907455  0.37963176  0.90742888     1.55600
O563        O  0.58105755  0.32042053  0.95684321    -0.76200
C564        C  0.74167837  0.29762511  0.86110022     0.99700
C565        C  0.70218329  0.44022539  0.86446615     0.94600
O566        O  0.64931324  0.40971562  0.87397949    -0.81500
O567        O  0.84719802  0.07965767  0.78838219    -0.81000
C568        C  0.76621768  0.20646419  0.70823044     0.98400
O569        O  0.73498759  0.16777375  0.72981784    -0.70100
O570        O  0.73861887  0.07802014  0.71337771    -0.73700
Al571      Al  0.75229298  0.11712171  0.75687321     1.49000
C572        C  0.76382282  0.05080395  0.70329537     0.93600
O573        O  0.90353116  0.15162060  0.69918859    -0.79900
O574        O  0.91534952  0.22960996  0.78987135    -0.73100
Al575      Al  0.87249786  0.11743665  0.74415937     1.90100
O576        O  0.92859734  0.23547260  0.71680807    -0.72500
O577        O  0.81623975  0.23598222  0.78236291    -0.72400
O578        O  0.82256832  0.22925178  0.70934804    -0.78000
O579        O  0.75676380  0.15235972  0.80124373    -0.76200
O580        O  0.83071507  0.15354310  0.75012787    -1.12400
O581        O  0.75290264  0.05886625  0.78507542    -0.71600
C582        C  0.79459174  0.05284457  0.79946068     0.99200
C583        C  0.93409516  0.20284345  0.69538373     0.95600
Al584      Al  0.86774389  0.22661074  0.74961545     1.55600
O585        O  0.81225223  0.05808925  0.71741759    -0.76200
C586        C  0.77824463  0.20355602  0.80444016     0.99700
C587        C  0.94826957  0.20679069  0.79180807     0.94600
O588        O  0.94163360  0.16903225  0.77014118    -0.81500
C589        C  0.97827512  0.22478879  0.66657397    -0.15600
C590        C  0.50881253  0.23708451  0.98481760    -0.30800
H591        H  0.97926768  0.19575079  0.64714366     0.13400
H592        H  0.49302534  0.19299160  0.98665320     0.14000
C593        C  0.52204358  0.24677627  0.83151572    -0.15600
C594        C  0.99531518  0.22398011  0.81946662    -0.30800
H595        H  0.52497026  0.21428662  0.81654722     0.13400
H596        H  0.02640407  0.20734679  0.81856581     0.14000
C597        C  0.78228255  0.01381160  0.82944017    -0.15600
C598        C  0.71477139  0.48254811  0.83625588    -0.30800
H599        H  0.81919375  0.00938446  0.84085941     0.13400
H600        H  0.67782662  0.48503321  0.82320667     0.14000
C601        C  0.74634330  0.47518687  0.99253852    -0.15600
C602        C  0.73599840  0.00994361  0.67467154    -0.30800
H603        H  0.78701508  0.47894270  0.00471040     0.13400
H604        H  0.69903926  0.00950499  0.65961355     0.14000
C605        C  0.73555620  0.22498301  0.68190489    -0.15600
C606        C  0.76870909  0.27586400  0.98442964    -0.30800
H607        H  0.68714944  0.20423414  0.68155052     0.13400
H608        H  0.81661818  0.29996225  0.98799719     0.14000
C609        C  0.75646833  0.22540541  0.83312572    -0.15600
C610        C  0.76900187  0.27853605  0.83377898    -0.30800
H611        H  0.72663161  0.19629346  0.85300335     0.13400
H612        H  0.79834713  0.30769395  0.81376118     0.14000
O613        O  0.59905178  0.85112726  0.19636204    -0.81000
C614        C  0.71401659  0.77879764  0.29930116     0.98400
O615        O  0.67570030  0.75122466  0.27611108    -0.70100
O616        O  0.58134815  0.76357647  0.28349539    -0.73700
Al617      Al  0.62975674  0.76825623  0.24358204     1.49000
C618        C  0.55229430  0.78974157  0.28755962     0.93600
O619        O  0.65715719  0.91553048  0.28686638    -0.79900
O620        O  0.76844875  0.92288801  0.21560630    -0.73500
Al621      Al  0.63145363  0.88088464  0.24223050     1.90100
O622        O  0.74889261  0.92820816  0.28821426    -0.72500
O623        O  0.76415341  0.82731447  0.22395689    -0.72400
O624        O  0.74172003  0.83054682  0.29734528    -0.78000
O625        O  0.67583218  0.76660797  0.20360417    -0.76200
O626        O  0.67047168  0.84148621  0.24698051    -1.12400
O627        O  0.57168174  0.76562217  0.21062449    -0.71600
C628        C  0.56617963  0.80062699  0.19133144     0.99200
C629        C  0.70826585  0.93766253  0.30039987     0.95600
Al630      Al  0.74899295  0.87434848  0.25561095     1.55600
O631        O  0.56169199  0.83027658  0.26763618    -0.76200
C632        C  0.73220256  0.78965445  0.20204222     0.99700
C633        C  0.74344666  0.95031577  0.20516907     0.94600
O634        O  0.69282024  0.93997099  0.21686765    -0.81500
O635        O  0.83624229  0.57775395  0.11927378    -0.81000
C636        C  0.76112219  0.70702672  0.03856061     0.98400
O637        O  0.72840987  0.66795532  0.05944927    -0.70100
O638        O  0.73059064  0.57757154  0.04316734    -0.73700
Al639      Al  0.74350814  0.61657934  0.08676848     1.49000
C640        C  0.75516806  0.54997447  0.03277407     0.93600
O641        O  0.89811145  0.65195284  0.03126599    -0.79900
O642        O  0.90640858  0.73026250  0.12216256    -0.73100
Al643      Al  0.86405759  0.61686208  0.07574549     1.90100
O644        O  0.92424405  0.73603958  0.04852018    -0.72500
O645        O  0.80599220  0.73535913  0.11430130    -0.72400
O646        O  0.81722989  0.72951003  0.04058453    -0.78000
O647        O  0.74532957  0.65083568  0.13099436    -0.76200
O648        O  0.82253160  0.65314838  0.08128660    -1.12400
O649        O  0.74224757  0.55762021  0.11527264    -0.71600
C650        C  0.78341031  0.55117781  0.12999698     0.99200
C651        C  0.93073526  0.70293613  0.02762790     0.95600
Al652      Al  0.86021109  0.72659914  0.08132653     1.55600
O653        O  0.80400600  0.55746122  0.04684361    -0.76200
C654        C  0.76559059  0.70171454  0.13508737     0.99700
C655        C  0.93990737  0.70829476  0.12448735     0.94600
O656        O  0.93223498  0.66862213  0.10393852    -0.81500
C657        C  0.97787045  0.72272647  0.99942599    -0.15600
C658        C  0.50728747  0.77387498  0.31618891    -0.30800
H659        H  0.97614875  0.69324639  0.97941429     0.13400
H660        H  0.49106238  0.80245883  0.32382626     0.14000
C661        C  0.51880772  0.78164987  0.16403104    -0.15600
C662        C  0.98924561  0.72942068  0.15107351    -0.30800
H663        H  0.51955180  0.81035568  0.14352171     0.13400
H664        H  0.01549383  0.70788989  0.15339739     0.14000
C665        C  0.77075285  0.51219863  0.16008951    -0.15600
C666        C  0.77341458  0.99507987  0.17875232    -0.30800
H667        H  0.80767744  0.50728453  0.17097821     0.13400
H668        H  0.81935272  0.00768898  0.17134715     0.14000
C669        C  0.71975104  0.97628303  0.33019910    -0.15600
C670        C  0.72503547  0.50844523  0.00398869    -0.30800
H671        H  0.68196599  0.97861650  0.34202925     0.13400
H672        H  0.68486428  0.50568416  0.99174525     0.14000
C673        C  0.73252511  0.72652882  0.01198689    -0.15600
C674        C  0.72538531  0.74842669  0.32834341    -0.30800
H675        H  0.68412945  0.70575674  0.01085515     0.13400
H676        H  0.69119305  0.70655967  0.33391055     0.14000
C677        C  0.73822070  0.72052022  0.16314561    -0.15600
C678        C  0.76211381  0.77274534  0.17445868    -0.30800
H679        H  0.69661217  0.68992295  0.17504401     0.13400
H680        H  0.80563425  0.80295832  0.16466048     0.14000
O681        O  0.57303730  0.83539753  0.55168501    -0.81000
C682        C  0.70843519  0.76723973  0.63344667     0.98400
O683        O  0.65558154  0.74987390  0.62351930    -0.70100
O684        O  0.56307708  0.76111518  0.60849513    -0.73700
Al685      Al  0.62840963  0.76522995  0.57994272     1.49000
C686        C  0.55984652  0.79589796  0.62954683     0.93600
O687        O  0.69351311  0.93597871  0.61570095    -0.79900
O688        O  0.76872859  0.93335137  0.56167587    -0.73500
Al689      Al  0.63771003  0.88073352  0.58363833     1.90100
O690        O  0.74995678  0.90032403  0.63368868    -0.72500
O691        O  0.76105590  0.83927983  0.54644214    -0.72400
O692        O  0.75021516  0.80869758  0.61819434    -0.78000
O693        O  0.68615391  0.75570988  0.55107615    -0.76200
O694        O  0.67236009  0.83773551  0.58431469    -1.12400
O695        O  0.59416435  0.77032171  0.53574685    -0.71600
C696        C  0.56428521  0.79541742  0.53149723     0.99200
C697        C  0.73097258  0.93441249  0.63758716     0.95600
Al698      Al  0.75096950  0.86784400  0.58962021     1.55600
O699        O  0.59247398  0.84673706  0.62504279    -0.76200
C700        C  0.73466671  0.79020910  0.53646504     0.99700
C701        C  0.73681348  0.94409273  0.54007590     0.94600
O702        O  0.68070705  0.91886178  0.54230922    -0.81500
O703        O  0.82112232  0.58031342  0.45844489    -0.81000
C704        C  0.79125926  0.73541989  0.37132686     0.98400
O705        O  0.75044397  0.69193561  0.38506585    -0.70100
O706        O  0.75241707  0.60114835  0.36675980    -0.73700
Al707      Al  0.75123874  0.63213801  0.41176804     1.49000
C708        C  0.77035465  0.56616782  0.36296003     0.93600
O709        O  0.90981117  0.65374113  0.37542095    -0.79900
O710        O  0.91246603  0.73076249  0.46434786    -0.73100
Al711      Al  0.86454355  0.61925660  0.41692757     1.90100
O712        O  0.93756855  0.73973387  0.39057596    -0.72500
O713        O  0.81781137  0.74259100  0.45294134    -0.72400
O714        O  0.84444547  0.75214415  0.38006420    -0.78000
O715        O  0.74146901  0.65925073  0.45576332    -0.76200
O716        O  0.83018043  0.66252859  0.41686966    -1.12400
O717        O  0.73348864  0.56533665  0.43812485    -0.71600
C718        C  0.76481830  0.55406629  0.45982279     0.99200
C719        C  0.94142336  0.70462523  0.37007793     0.95600
Al720      Al  0.87427167  0.73507784  0.42168157     1.55600
O721        O  0.80797201  0.56448484  0.38472609    -0.76200
C722        C  0.76883250  0.70773603  0.46699460     0.99700
C723        C  0.94237894  0.70566425  0.46776495     0.94600
O724        O  0.93048002  0.66398928  0.44853297    -0.81500
C725        C  0.98289718  0.72242511  0.33909823    -0.15600
C726        C  0.51809912  0.77758678  0.66015928    -0.30800
H727        H  0.98694314  0.69106227  0.32346379     0.13400
H728        H  0.51335117  0.80849833  0.67589897     0.14000
C729        C  0.51687157  0.77682766  0.50385887    -0.15600
C730        C  0.99321766  0.72630924  0.49336959    -0.30800
H731        H  0.49346852  0.80080689  0.50032772     0.13400
H732        H  0.01399237  0.70045276  0.49863274     0.14000
C733        C  0.73457393  0.50911637  0.48646817    -0.15600
C734        C  0.76571655  0.98688842  0.51215184    -0.30800
H735        H  0.68622645  0.48861111  0.48779409     0.13400
H736        H  0.81268017  0.00163444  0.50651053     0.14000
C737        C  0.75546340  0.97380587  0.66720704    -0.15600
C738        C  0.74445686  0.52555639  0.33388184    -0.30800
H739        H  0.79133689  0.97344382  0.68304796     0.13400
H740        H  0.71084772  0.52759353  0.31666892     0.14000
C741        C  0.77798258  0.76834937  0.34502267    -0.15600
C742        C  0.72047109  0.73770385  0.66302097    -0.30800
H743        H  0.81346891  0.80890188  0.33777245     0.13400
H744        H  0.68336752  0.70155589  0.67472796     0.14000
C745        C  0.74107223  0.72276636  0.49648162    -0.15600
C746        C  0.76286163  0.77449710  0.50762748    -0.30800
H747        H  0.70074688  0.69056257  0.50864835     0.13400
H748        H  0.80304001  0.80669385  0.49531494     0.14000
O749        O  0.56417238  0.82546691  0.89623298    -0.81000
C750        C  0.73583216  0.78821963  0.96311385     0.98400
O751        O  0.67982892  0.76556047  0.96091427    -0.70100
O752        O  0.57299507  0.75846909  0.95339123    -0.73700
Al753      Al  0.63700511  0.76827596  0.92007222     1.49000
C754        C  0.56513247  0.79204564  0.97316407     0.93600
O755        O  0.68977688  0.93679071  0.95345854    -0.79900
O756        O  0.75446221  0.93933295  0.88846402    -0.73500
Al757      Al  0.63116685  0.87730460  0.92439839     1.90100
O758        O  0.76199130  0.91547270  0.96042811    -0.72500
O759        O  0.75264675  0.84693562  0.87107652    -0.72400
O760        O  0.76836276  0.82745934  0.94235989    -0.78000
O761        O  0.69276219  0.76146148  0.88667232    -0.76200
O762        O  0.67346529  0.84155351  0.92015686    -1.12400
O763        O  0.59031681  0.76367270  0.87910389    -0.71600
C764        C  0.55701066  0.78575303  0.87607386     0.99200
C765        C  0.73667413  0.94306475  0.96958447     0.95600
Al766      Al  0.75260136  0.87914277  0.91593298     1.55600
O767        O  0.59598318  0.84296052  0.96836483    -0.76200
C768        C  0.73311417  0.79625147  0.86614448     0.99700
C769        C  0.71358901  0.94432669  0.87212133     0.94600
O770        O  0.66008252  0.91559760  0.88087896    -0.81500
O771        O  0.84258373  0.58582325  0.79074902    -0.81000
C772        C  0.79056185  0.72673103  0.70463115     0.98400
O773        O  0.75137110  0.68469153  0.72114971    -0.70100
O774        O  0.75273699  0.59290188  0.70621894    -0.73700
Al775      Al  0.75788474  0.62874052  0.75043398     1.49000
C776        C  0.77493856  0.56177401  0.69990111     0.93600
O777        O  0.91260874  0.65735733  0.70402786    -0.79900
O778        O  0.91817251  0.73185051  0.79642943    -0.73100
Al779      Al  0.87589377  0.62317770  0.74765493     1.90100
O780        O  0.94264492  0.74225170  0.72224709    -0.72500
O781        O  0.82256784  0.74428964  0.78584532    -0.72400
O782        O  0.84456739  0.74697604  0.71274476    -0.78000
O783        O  0.75197181  0.65990277  0.79443556    -0.76200
O784        O  0.83713427  0.66249091  0.75079785    -1.12400
O785        O  0.74954701  0.56626531  0.77979844    -0.71600
C786        C  0.78789163  0.55866728  0.79766432     0.99200
C787        C  0.94506871  0.70830846  0.69996617     0.95600
Al788      Al  0.87854042  0.73534552  0.75418536     1.55600
O789        O  0.81766695  0.56461702  0.71878913    -0.76200
C790        C  0.77642447  0.70991062  0.80261970     0.99700
C791        C  0.95098263  0.70920077  0.79800469     0.94600
O792        O  0.94404641  0.67181005  0.77595169    -0.81500
C793        C  0.98684297  0.72687426  0.66916479    -0.15600
C794        C  0.51741304  0.77351153  0.00085171    -0.30800
H795        H  0.98864892  0.69546874  0.65233237     0.13400
H796        H  0.50585168  0.80411498  0.01115164     0.14000
C797        C  0.50866090  0.76530497  0.84897337    -0.15600
C798        C  0.99903303  0.72721608  0.82498542    -0.30800
H799        H  0.48230687  0.78674310  0.84675312     0.13400
H800        H  0.02631917  0.70657846  0.82567794     0.14000
C801        C  0.77097387  0.51698420  0.82651326    -0.15600
C802        C  0.72720533  0.98413517  0.84257498    -0.30800
H803        H  0.80739763  0.51398990  0.83993595     0.13400
H804        H  0.69033956  0.98838535  0.83090424     0.14000
C805        C  0.76345372  0.98352506  0.99914821    -0.15600
C806        C  0.74958314  0.52137873  0.67049493    -0.30800
H807        H  0.80127919  0.98512632  0.01382315     0.13400
H808        H  0.71340146  0.52112926  0.65468224     0.14000
C809        C  0.77561419  0.75462998  0.67547612    -0.15600
C810        C  0.76443602  0.76875597  0.98970957    -0.30800
H811        H  0.81235738  0.79087348  0.66354746     0.13400
H812        H  0.81282422  0.78956739  0.99086749     0.14000
C813        C  0.74880483  0.72686237  0.83186726    -0.15600
C814        C  0.76051966  0.77916956  0.83682103    -0.30800
H815        H  0.71593100  0.69474376  0.84897095     0.13400
H816        H  0.79272813  0.81113583  0.81932949     0.14000
loop_ 
_geom_bond_atom_site_label_1 
_geom_bond_atom_site_label_2 
_geom_bond_distance 
_geom_bond_site_symmetry_2 
_ccdc_geom_bond_type 
O1           C16   1.275       .  A
O1           Al9   1.971       .  S
C2           O12   1.262       .  A
C2            O3   1.251       .  A
C2           C62   1.459       .  S
O3           Al5   1.869       .  S
O4            C6   1.265       .  A
O4           Al5   1.927       .  S
Al5          O13   1.941       .  S
Al5          O15   1.864       .  S
Al5          O14   1.779       .  S
C6           O19   1.257       .  A
C6           C46   1.477       .  S
O7           C17   1.277       .  A
O7           Al9   1.971       .  S
O8           C21   1.260       .  A
O8          Al18   1.917       .  S
Al9          O22   1.901       .  S
Al9          O19   1.887       .  S
Al9          O14   1.781       .  S
O10          C17   1.257       .  A
O10         Al18   1.867       .  S
O11          C20   1.256       .  A
O11         Al18   1.861       .  S
O12         Al18   1.925       .  S
O13          C20   1.270       .  A
O14         Al18   1.781       .  S
O15          C16   1.252       .  A
C16          C49   1.483       .  S
C17          C57   1.477       .  S
C20          C66   1.461       .  S
C21          O22   1.261       .  A
C21          C54   1.475       .  S
O23          C38   1.258       .  A
O23         Al31   1.901       .  S
C24          O34   1.265       .  A
C24          O25   1.269       .  A
C24          C61   1.495       .  S
O25         Al27   1.944       .  S
O26          C28   1.252       .  A
O26         Al27   1.874       .  S
Al27         O35   1.884       .  S
Al27         O37   1.938       .  S
Al27         O36   1.788       .  S
C28          O41   1.264       .  A
C28          C58   1.470       .  S
O29          C39   1.264       .  A
O29         Al31   1.908       .  S
O30          C43   1.266       .  A
O30         Al40   1.914       .  S
Al31         O44   1.913       .  S
Al31         O41   1.923       .  S
Al31         O36   1.790       .  S
O32          C39   1.257       .  A
O32         Al40   1.901       .  S
O33          C42   1.260       .  A
O33         Al40   1.898       .  S
O34         Al40   1.916       .  S
O35          C42   1.252       .  A
O36         Al40   1.787       .  S
O37          C38   1.269       .  A
C38          C53   1.493       .  S
C39          C45   1.473       .  S
C42          C65   1.468       .  S
C43          O44   1.262       .  A
C43          C50   1.478       .  S
C45          H47   1.087       .  S
C45         C590   1.337   1_554  D
C46          H48   1.086   1_455  S
C46         C521   1.342   1_455  D
C49          H51   1.087       .  S
C49         C458   1.336   1_455  D
C50          H52   1.087       .  S
C50         C457   1.341       .  D
C53          H55   1.086       .  S
C53         C258   1.343   1_545  D
C54          H56   1.086       .  S
C54         C257   1.343       .  D
C57          H59   1.087       .  S
C57         C330   1.338       .  D
C58          H60   1.087   1_554  S
C58         C397   1.338   1_544  D
C61          H63   1.087       .  S
C61         C198   1.353   1_554  D
C62          H64   1.087       .  S
C62         C129   1.338       .  D
C65          H67   1.087       .  S
C65          C66   1.337       .  D
C66          H68   1.087       .  S
O69          C84   1.265       .  A
O69         Al77   1.922       .  S
C70          O80   1.269       .  A
C70          O71   1.266       .  A
C70         C130   1.476       .  S
O71         Al73   1.898       .  S
O72          C74   1.251       .  A
O72         Al73   1.870       .  S
Al73         O81   1.874       .  S
Al73         O83   1.883       .  S
Al73         O82   1.790       .  S
C74          O87   1.254       .  A
C74         C114   1.460       .  S
O75          C85   1.261       .  A
O75         Al77   1.909       .  S
O76          C89   1.269       .  A
O76         Al86   1.935       .  S
Al77         O90   1.872       .  S
Al77         O87   1.894       .  S
Al77         O82   1.796       .  S
O78          C85   1.257       .  A
O78         Al86   1.903       .  S
O79          C88   1.263       .  A
O79         Al86   1.922       .  S
O80         Al86   1.927       .  S
O81          C88   1.248       .  A
O82         Al86   1.789       .  S
O83          C84   1.265       .  A
C84         C117   1.469   1_455  S
C85         C125   1.485       .  S
C88         C134   1.472       .  S
C89          O90   1.251       .  A
C89         C122   1.480       .  S
O91         C106   1.261       .  A
O91         Al99   1.892       .  S
C92         O102   1.260       .  A
C92          O93   1.267       .  A
C92         C129   1.465       .  S
O93         Al95   1.911       .  S
O94          C96   1.260       .  A
O94         Al95   1.907       .  S
Al95        O103   1.918       .  S
Al95        O105   1.921       .  S
Al95        O104   1.782       .  S
C96         O109   1.266       .  A
C96         C126   1.494       .  S
O97         C107   1.257       .  A
O97         Al99   1.906       .  S
O98         C111   1.261       .  A
O98        Al108   1.874       .  S
Al99        O112   1.952       .  S
Al99        O109   1.935       .  S
Al99        O104   1.788       .  S
O100        C107   1.255       .  A
O100       Al108   1.881       .  S
O101        C110   1.252       .  A
O101       Al108   1.890       .  S
O102       Al108   1.885       .  S
O103        C110   1.264       .  A
O104       Al108   1.788       .  S
O105        C106   1.264       .  A
C106        C121   1.479       .  S
C107        C113   1.468       .  S
C110        C133   1.474       .  S
C111        O112   1.271       .  A
C111        C118   1.478       .  S
C113        H115   1.086       .  S
C113        C454   1.345       .  D
C114        H116   1.087       .  S
C114        C589   1.345   1_455  D
C117        H119   1.086       .  S
C117        C526   1.337       .  D
C118        H120   1.086       .  S
C118        C525   1.349       .  D
C121        H123   1.086       .  S
C121        C326   1.346   1_545  D
C122        H124   1.087       .  S
C122        C325   1.333       .  D
C125        H127   1.086       .  S
C125        C398   1.345       .  D
C126        H128   1.086       .  S
C126        C261   1.348   1_545  D
C129        H131   1.087       .  S
C130        H132   1.086       .  S
C130        C197   1.346       .  D
C133        H135   1.087       .  S
C133        C134   1.333       .  D
C134        H136   1.087       .  S
O137        C152   1.252       .  A
O137       Al145   1.887       .  S
C138        O148   1.266       .  A
C138        O139   1.262       .  A
C138        C198   1.495       .  S
O139       Al141   1.915       .  S
O140        C142   1.272       .  A
O140       Al141   1.944       .  S
Al141       O149   1.933       .  S
Al141       O151   1.912       .  S
Al141       O150   1.782       .  S
C142        O155   1.258       .  A
C142        C182   1.470   1_556  S
O143        C153   1.253       .  A
O143       Al145   1.888       .  S
O144        C157   1.272       .  A
O144       Al154   1.939       .  S
Al145       O158   1.888       .  S
Al145       O155   1.873       .  S
Al145       O150   1.790       .  S
O146        C153   1.261       .  A
O146       Al154   1.900       .  S
O147        C156   1.259       .  A
O147       Al154   1.892       .  S
O148       Al154   1.935       .  S
O149        C156   1.267       .  A
O150       Al154   1.777       .  S
O151        C152   1.260       .  A
C152        C185   1.465   1_455  S
C153        C193   1.460       .  S
C156        C202   1.483       .  S
C157        O158   1.259       .  A
C157        C190   1.478       .  S
O159        C174   1.254       .  A
O159       Al167   1.879       .  S
C160        O170   1.261       .  A
C160        O161   1.267       .  A
C160        C197   1.478       .  S
O161       Al163   1.939       .  S
O162        C164   1.257       .  A
O162       Al163   1.878       .  S
Al163       O171   1.886       .  S
Al163       O173   1.943       .  S
Al163       O172   1.780       .  S
C164        O177   1.272       .  A
C164        C194   1.479       .  S
O165        C175   1.254       .  A
O165       Al167   1.880       .  S
O166        C179   1.254       .  A
O166       Al176   1.868       .  S
Al167       O180   1.949       .  S
Al167       O177   1.957       .  S
Al167       O172   1.779       .  S
O168        C175   1.270       .  A
O168       Al176   1.964       .  S
O169        C178   1.271       .  A
O169       Al176   1.952       .  S
O170       Al176   1.887       .  S
O171        C178   1.259       .  A
O172       Al176   1.783       .  S
O173        C174   1.267       .  A
C174        C189   1.478       .  S
C175        C181   1.485       .  S
C178        C201   1.482       .  S
C179        O180   1.272       .  A
C179        C186   1.474       .  S
C181        H183   1.087       .  S
C181        C522   1.344       .  D
C182        H184   1.087       .  S
C182        C453   1.337   1_455  D
C185        H187   1.088       .  S
C185        C594   1.336       .  D
C186        H188   1.087       .  S
C186        C593   1.335       .  D
C189        H191   1.087       .  S
C189        C394   1.339   1_545  D
C190        H192   1.087       .  S
C190        C393   1.338       .  D
C193        H195   1.088       .  S
C193        C262   1.332   1_556  D
C194        H196   1.087       .  S
C194        C329   1.342   1_545  D
C197        H199   1.086       .  S
C198        H200   1.087       .  S
C201        H203   1.087       .  S
C201        C202   1.343       .  D
C202        H204   1.087       .  S
O205        C220   1.267       .  A
O205       Al213   1.948       .  S
C206        O216   1.275       .  A
C206        O207   1.251       .  A
C206        C266   1.483       .  S
O207       Al209   1.861       .  S
O208        C210   1.271       .  A
O208       Al209   1.945       .  S
Al209       O217   1.943       .  S
Al209       O219   1.879       .  S
Al209       O218   1.791       .  S
C210        O223   1.256       .  A
C210        C250   1.473       .  S
O211        C221   1.265       .  A
O211       Al213   1.951       .  S
O212        C225   1.277       .  A
O212       Al222   1.979       .  S
Al213       O226   1.868       .  S
Al213       O223   1.874       .  S
Al213       O218   1.790       .  S
O214        C221   1.254       .  A
O214       Al222   1.892       .  S
O215        C224   1.254       .  A
O215       Al222   1.884       .  S
O216       Al222   1.965       .  S
O217        C224   1.266       .  A
O218       Al222   1.782       .  S
O219        C220   1.256       .  A
C220        C253   1.481       .  S
C221        C261   1.492       .  S
C224        C270   1.487       .  S
C225        O226   1.257       .  A
C225        C258   1.487       .  S
O227        C242   1.259       .  A
O227       Al235   1.911       .  S
C228        O238   1.258       .  A
C228        O229   1.255       .  A
C228        C265   1.474   1_554  S
O229       Al231   1.892       .  S
O230        C232   1.265       .  A
O230       Al231   1.912       .  S
Al231       O239   1.921       .  S
Al231       O241   1.890       .  S
Al231       O240   1.791       .  S
C232        O245   1.252       .  A
C232        C262   1.463       .  S
O233        C243   1.263       .  A
O233       Al235   1.921       .  S
O234        C247   1.259       .  A
O234       Al244   1.907       .  S
Al235       O248   1.877       .  S
Al235       O245   1.864       .  S
Al235       O240   1.795       .  S
O236        C243   1.266       .  A
O236       Al244   1.913       .  S
O237        C246   1.268       .  A
O237       Al244   1.918       .  S
O238       Al244   1.906       .  S
O239        C246   1.265       .  A
O240       Al244   1.797       .  S
O241        C242   1.254       .  A
C242        C257   1.477       .  S
C243        C249   1.484       .  S
C246        C269   1.488       .  S
C247        O248   1.254       .  A
C247        C254   1.459       .  S
C249        H251   1.086       .  S
C249        C794   1.341       .  D
C250        H252   1.087       .  S
C250        C725   1.339   1_455  D
C253        H255   1.086   1_455  S
C253        C662   1.352   1_455  D
C254        H256   1.087       .  S
C254        C661   1.343       .  D
C257        H259   1.087       .  S
C258        H260   1.087       .  S
C261        H263   1.087       .  S
C262        H264   1.087       .  S
C265        H267   1.087       .  S
C265        C402   1.345       .  D
C266        H268   1.087       .  S
C266        C333   1.333       .  D
C269        H271   1.086       .  S
C269        C270   1.344       .  D
C270        H272   1.087       .  S
O273        C288   1.265       .  A
O273       Al281   1.941       .  S
C274        O284   1.266       .  A
C274        O275   1.249       .  A
C274        C334   1.473       .  S
O275       Al277   1.866       .  S
O276        C278   1.272       .  A
O276       Al277   1.942       .  S
Al277       O285   1.951       .  S
Al277       O287   1.883       .  S
Al277       O286   1.787       .  S
C278        O291   1.259       .  A
C278        C318   1.475       .  S
O279        C289   1.266       .  A
O279       Al281   1.937       .  S
O280        C293   1.268       .  A
O280       Al290   1.936       .  S
Al281       O294   1.893       .  S
Al281       O291   1.880       .  S
Al281       O286   1.784       .  S
O282        C289   1.257       .  A
O282       Al290   1.895       .  S
O283        C292   1.254       .  A
O283       Al290   1.875       .  S
O284       Al290   1.931       .  S
O285        C292   1.271       .  A
O286       Al290   1.783       .  S
O287        C288   1.256       .  A
C288        C321   1.482       .  S
C289        C329   1.483       .  S
C292        C338   1.482       .  S
C293        O294   1.264       .  A
C293        C326   1.477       .  S
O295        C310   1.253       .  A
O295       Al303   1.851       .  S
C296        O306   1.250       .  A
C296        O297   1.275       .  A
C296        C333   1.482       .  S
O297       Al299   1.969       .  S
O298        C300   1.253       .  A
O298       Al299   1.885       .  S
Al299       O307   1.872       .  S
Al299       O309   1.981       .  S
Al299       O308   1.778       .  S
C300        O313   1.267       .  A
C300        C330   1.481       .  S
O301        C311   1.255       .  A
O301       Al303   1.857       .  S
O302        C315   1.257       .  A
O302       Al312   1.880       .  S
Al303       O316   1.941       .  S
Al303       O313   1.945       .  S
Al303       O308   1.782       .  S
O304        C311   1.273       .  A
O304       Al312   1.947       .  S
O305        C314   1.270       .  A
O305       Al312   1.953       .  S
O306       Al312   1.856       .  S
O307        C314   1.253       .  A
O308       Al312   1.779       .  S
O309        C310   1.278       .  A
C310        C325   1.475       .  S
C311        C317   1.461       .  S
C314        C337   1.481       .  S
C315        O316   1.265       .  A
C315        C322   1.476       .  S
C317        H319   1.088       .  S
C317        C658   1.333       .  D
C318        H320   1.087       .  S
C318        C793   1.338   1_455  D
C321        H323   1.086   1_455  S
C321        C730   1.352   1_455  D
C322        H324   1.086       .  S
C322        C729   1.348       .  D
C325        H327   1.088       .  S
C326        H328   1.086   1_565  S
C329        H331   1.086       .  S
C330        H332   1.087       .  S
C333        H335   1.087       .  S
C334        H336   1.087       .  S
C334        C401   1.333       .  D
C337        H339   1.087       .  S
C337        C338   1.338       .  D
C338        H340   1.087       .  S
O341        C356   1.264       .  A
O341       Al349   1.922       .  S
C342        O352   1.268       .  A
C342        O343   1.262       .  A
C342        C402   1.475       .  S
O343       Al345   1.884       .  S
O344        C346   1.270       .  A
O344       Al345   1.955       .  S
Al345       O353   1.944       .  S
Al345       O355   1.888       .  S
Al345       O354   1.785       .  S
C346        O359   1.259       .  A
C346        C386   1.485       .  S
O347        C357   1.264       .  A
O347       Al349   1.924       .  S
O348        C361   1.269       .  A
O348       Al358   1.944       .  S
Al349       O362   1.879       .  S
Al349       O359   1.893       .  S
Al349       O354   1.783       .  S
O350        C357   1.253       .  A
O350       Al358   1.878       .  S
O351        C360   1.256       .  A
O351       Al358   1.888       .  S
O352       Al358   1.934       .  S
O353        C360   1.267       .  A
O354       Al358   1.782       .  S
O355        C356   1.262       .  A
C356        C389   1.468       .  S
C357        C397   1.471       .  S
C360        C406   1.483       .  S
C361        O362   1.256       .  A
C361        C394   1.478       .  S
O363        C378   1.255       .  A
O363       Al371   1.862       .  S
C364        O374   1.251       .  A
C364        O365   1.272       .  A
C364        C401   1.470       .  S
O365       Al367   1.953       .  S
O366        C368   1.255       .  A
O366       Al367   1.883       .  S
Al367       O375   1.888       .  S
Al367       O377   1.955       .  S
Al367       O376   1.778       .  S
C368        O381   1.265       .  A
C368        C398   1.481       .  S
O369        C379   1.255       .  A
O369       Al371   1.868       .  S
O370        C383   1.258       .  A
O370       Al380   1.880       .  S
Al371       O384   1.944       .  S
Al371       O381   1.944       .  S
Al371       O376   1.783       .  S
O372        C379   1.269       .  A
O372       Al380   1.938       .  S
O373        C382   1.266       .  A
O373       Al380   1.943       .  S
O374       Al380   1.854       .  S
O375        C382   1.255       .  A
O376       Al380   1.782       .  S
O377        C378   1.273       .  A
C378        C393   1.472       .  S
C379        C385   1.466       .  S
C382        C405   1.482       .  S
C383        O384   1.267       .  A
C383        C390   1.478       .  S
C385        H387   1.087       .  S
C385        C726   1.337       .  D
C386        H388   1.087   1_556  S
C386        C657   1.346   1_455  D
C389        H391   1.087   1_455  S
C389        C798   1.342   1_455  D
C390        H392   1.086       .  S
C390        C797   1.348       .  D
C393        H395   1.087       .  S
C394        H396   1.087       .  S
C397        H399   1.087   1_556  S
C398        H400   1.087       .  S
C401        H403   1.088       .  S
C402        H404   1.086       .  S
C405        H407   1.087       .  S
C405        C406   1.343       .  D
C406        H408   1.087       .  S
O409        C424   1.261       .  A
O409       Al417   1.922       .  S
C410        O420   1.264       .  A
C410        O411   1.263       .  A
C410        C470   1.481       .  S
O411       Al413   1.900       .  S
O412        C414   1.263       .  A
O412       Al413   1.913       .  S
Al413       O421   1.897       .  S
Al413       O423   1.908       .  S
Al413       O422   1.781       .  S
C414        O427   1.260       .  A
C414        C454   1.459       .  S
O415        C425   1.262       .  A
O415       Al417   1.920       .  S
O416        C429   1.268       .  A
O416       Al426   1.926       .  S
Al417       O430   1.879       .  S
Al417       O427   1.881       .  S
Al417       O422   1.783       .  S
O418        C425   1.252       .  A
O418       Al426   1.878       .  S
O419        C428   1.253       .  A
O419       Al426   1.880       .  S
O420       Al426   1.924       .  S
O421        C428   1.261       .  A
O422       Al426   1.782       .  S
O423        C424   1.263       .  A
C424        C457   1.480       .  S
C425        C465   1.466       .  S
C428        C474   1.463       .  S
C429        O430   1.257       .  A
C429        C462   1.470       .  S
O431        C446   1.258       .  A
O431       Al439   1.894       .  S
C432        O442   1.258       .  A
C432        O433   1.257       .  A
C432        C469   1.456       .  S
O433       Al435   1.899       .  S
O434        C436   1.256       .  A
O434       Al435   1.862       .  S
Al435       O443   1.867       .  S
Al435       O445   1.894       .  S
Al435       O444   1.780       .  S
C436        O449   1.276       .  A
C436        C466   1.475       .  S
O437        C447   1.253       .  A
O437       Al439   1.876       .  S
O438        C451   1.253       .  A
O438       Al448   1.868       .  S
Al439       O452   1.969       .  S
Al439       O449   1.968       .  S
Al439       O444   1.780       .  S
O440        C447   1.265       .  A
O440       Al448   1.926       .  S
O441        C450   1.268       .  A
O441       Al448   1.930       .  S
O442       Al448   1.885       .  S
O443        C450   1.257       .  A
O444       Al448   1.780       .  S
O445        C446   1.256       .  A
C446        C461   1.461       .  S
C447        C453   1.472       .  S
C450        C473   1.458       .  S
C451        O452   1.275       .  A
C451        C458   1.484       .  S
C453        H455   1.087   1_554  S
C454        H456   1.087       .  S
C457        H459   1.086       .  S
C458        H460   1.087       .  S
C461        H463   1.087       .  S
C461        C666   1.339   1_545  D
C462        H464   1.087       .  S
C462        C665   1.339       .  D
C465        H467   1.087       .  S
C465        C738   1.338       .  D
C466        H468   1.087   1_554  S
C466        C805   1.337   1_544  D
C469        H471   1.087       .  S
C469        C606   1.337   1_554  D
C470        H472   1.086       .  S
C470        C537   1.344       .  D
C473        H475   1.087       .  S
C473        C474   1.337       .  D
C474        H476   1.087       .  S
O477        C492   1.263       .  A
O477       Al485   1.916       .  S
C478        O488   1.255       .  A
C478        O479   1.261       .  A
C478        C538   1.473       .  S
O479       Al481   1.914       .  S
O480        C482   1.269       .  A
O480       Al481   1.942       .  S
Al481       O489   1.951       .  S
Al481       O491   1.888       .  S
Al481       O490   1.789       .  S
C482        O495   1.258       .  A
C482        C522   1.489       .  S
O483        C493   1.269       .  A
O483       Al485   1.931       .  S
O484        C497   1.256       .  A
O484       Al494   1.903       .  S
Al485       O498   1.913       .  S
Al485       O495   1.895       .  S
Al485       O490   1.787       .  S
O486        C493   1.259       .  A
O486       Al494   1.883       .  S
O487        C496   1.260       .  A
O487       Al494   1.878       .  S
O488       Al494   1.896       .  S
O489        C496   1.272       .  A
O490       Al494   1.788       .  S
O491        C492   1.258       .  A
C492        C525   1.474       .  S
C493        C533   1.471       .  S
C496        C542   1.476       .  S
C497        O498   1.260       .  A
C497        C530   1.475       .  S
O499        C514   1.261       .  A
O499       Al507   1.915       .  S
C500        O510   1.264       .  A
C500        O501   1.257       .  A
C500        C537   1.480       .  S
O501       Al503   1.889       .  S
O502        C504   1.267       .  A
O502       Al503   1.927       .  S
Al503       O511   1.925       .  S
Al503       O513   1.880       .  S
Al503       O512   1.789       .  S
C504        O517   1.252       .  A
C504        C534   1.465       .  S
O505        C515   1.262       .  A
O505       Al507   1.917       .  S
O506        C519   1.266       .  A
O506       Al516   1.933       .  S
Al507       O520   1.865       .  S
Al507       O517   1.863       .  S
Al507       O512   1.791       .  S
O508        C515   1.262       .  A
O508       Al516   1.902       .  S
O509        C518   1.262       .  A
O509       Al516   1.893       .  S
O510       Al516   1.929       .  S
O511        C518   1.264       .  A
O512       Al516   1.790       .  S
O513        C514   1.254       .  A
C514        C529   1.469       .  S
C515        C521   1.478       .  S
C518        C541   1.481       .  S
C519        O520   1.253       .  A
C519        C526   1.465       .  S
C521        H523   1.087   1_655  S
C522        H524   1.086       .  S
C525        H527   1.087       .  S
C526        H528   1.088       .  S
C529        H531   1.087   1_545  S
C529        C734   1.342   1_545  D
C530        H532   1.087       .  S
C530        C733   1.341       .  D
C533        H535   1.087       .  S
C533        C806   1.341       .  D
C534        H536   1.087       .  S
C534        C669   1.334   1_545  D
C537        H539   1.087       .  S
C538        H540   1.087       .  S
C538        C605   1.339       .  D
C541        H543   1.086       .  S
C541        C542   1.342       .  D
C542        H544   1.087       .  S
O545        C560   1.278       .  A
O545       Al553   1.958       .  S
C546        O556   1.266       .  A
C546        O547   1.263       .  A
C546        C606   1.463       .  S
O547       Al549   1.869       .  S
O548        C550   1.251       .  A
O548       Al549   1.893       .  S
Al549       O557   1.884       .  S
Al549       O559   1.869       .  S
Al549       O558   1.782       .  S
C550        O563   1.259       .  A
C550        C590   1.473       .  S
O551        C561   1.274       .  A
O551       Al553   1.963       .  S
O552        C565   1.261       .  A
O552       Al562   1.905       .  S
Al553       O566   1.892       .  S
Al553       O563   1.909       .  S
Al553       O558   1.782       .  S
O554        C561   1.253       .  A
O554       Al562   1.862       .  S
O555        C564   1.257       .  A
O555       Al562   1.898       .  S
O556       Al562   1.928       .  S
O557        C564   1.255       .  A
O558       Al562   1.785       .  S
O559        C560   1.259       .  A
C560        C593   1.474       .  S
C561        C601   1.481       .  S
C564        C610   1.461       .  S
C565        O566   1.254       .  A
C565        C598   1.479       .  S
O567        C582   1.254       .  A
O567       Al575   1.877       .  S
C568        O578   1.266       .  A
C568        O569   1.265       .  A
C568        C605   1.478       .  S
O569       Al571   1.926       .  S
O570        C572   1.254       .  A
O570       Al571   1.877       .  S
Al571       O579   1.885       .  S
Al571       O581   1.916       .  S
Al571       O580   1.779       .  S
C572        O585   1.264       .  A
C572        C602   1.464       .  S
O573        C583   1.257       .  A
O573       Al575   1.886       .  S
O574        C587   1.265       .  A
O574       Al584   1.893       .  S
Al575       O588   1.919       .  S
Al575       O585   1.909       .  S
Al575       O580   1.782       .  S
O576        C583   1.258       .  A
O576       Al584   1.892       .  S
O577        C586   1.257       .  A
O577       Al584   1.892       .  S
O578       Al584   1.900       .  S
O579        C586   1.256       .  A
O580       Al584   1.776       .  S
O581        C582   1.265       .  A
C582        C597   1.468       .  S
C583        C589   1.456       .  S
C586        C609   1.455       .  S
C587        O588   1.263       .  A
C587        C594   1.471       .  S
C589        H591   1.087       .  S
C590        H592   1.087       .  S
C593        H595   1.087       .  S
C594        H596   1.087   1_655  S
C597        H599   1.087       .  S
C597        C802   1.337   1_545  D
C598        H600   1.086       .  S
C598        C801   1.340       .  D
C601        H603   1.087   1_556  S
C601        C670   1.338   1_556  D
C602        H604   1.087       .  S
C602        C737   1.336   1_545  D
C605        H607   1.087       .  S
C606        H608   1.087       .  S
C609        H611   1.087       .  S
C609        C610   1.344       .  D
C610        H612   1.087       .  S
O613        C628   1.255       .  A
O613       Al621   1.895       .  S
C614        O624   1.260       .  A
C614        O615   1.251       .  A
C614        C674   1.468       .  S
O615       Al617   1.881       .  S
O616        C618   1.263       .  A
O616       Al617   1.888       .  S
Al617       O625   1.902       .  S
Al617       O627   1.888       .  S
Al617       O626   1.787       .  S
C618        O631   1.260       .  A
C618        C658   1.467       .  S
O619        C629   1.251       .  A
O619       Al621   1.865       .  S
O620        C633   1.256       .  A
O620       Al630   1.891       .  S
Al621       O634   1.887       .  S
Al621       O631   1.907       .  S
Al621       O626   1.793       .  S
O622        C629   1.265       .  A
O622       Al630   1.917       .  S
O623        C632   1.266       .  A
O623       Al630   1.920       .  S
O624       Al630   1.908       .  S
O625        C632   1.267       .  A
O626       Al630   1.791       .  S
O627        C628   1.257       .  A
C628        C661   1.465       .  S
C629        C669   1.465       .  S
C632        C678   1.476       .  S
C633        O634   1.259       .  A
C633        C666   1.470       .  S
O635        C650   1.254       .  A
O635       Al643   1.875       .  S
C636        O646   1.263       .  A
C636        O637   1.264       .  A
C636        C673   1.464       .  S
O637       Al639   1.916       .  S
O638        C640   1.254       .  A
O638       Al639   1.881       .  S
Al639       O647   1.880       .  S
Al639       O649   1.920       .  S
Al639       O648   1.786       .  S
C640        O653   1.271       .  A
C640        C670   1.486       .  S
O641        C651   1.257       .  A
O641       Al643   1.894       .  S
O642        C655   1.261       .  A
O642       Al652   1.884       .  S
Al643       O656   1.949       .  S
Al643       O653   1.950       .  S
Al643       O648   1.779       .  S
O644        C651   1.267       .  A
O644       Al652   1.950       .  S
O645        C654   1.266       .  A
O645       Al652   1.943       .  S
O646       Al652   1.882       .  S
O647        C654   1.255       .  A
O648       Al652   1.785       .  S
O649        C650   1.264       .  A
C650        C665   1.469       .  S
C651        C657   1.485   1_554  S
C654        C677   1.476       .  S
C655        O656   1.271       .  A
C655        C662   1.480       .  S
C657        H659   1.087       .  S
C658        H660   1.087       .  S
C661        H663   1.087       .  S
C662        H664   1.087   1_655  S
C665        H667   1.087       .  S
C666        H668   1.087   1_565  S
C669        H671   1.087       .  S
C670        H672   1.087   1_554  S
C673        H675   1.087       .  S
C673        C810   1.339   1_554  D
C674        H676   1.087       .  S
C674        C741   1.334       .  D
C677        H679   1.087       .  S
C677        C678   1.340       .  D
C678        H680   1.086       .  S
O681        C696   1.263       .  A
O681       Al689   1.930       .  S
C682        O692   1.266       .  A
C682        O683   1.251       .  A
C682        C742   1.475       .  S
O683       Al685   1.874       .  S
O684        C686   1.270       .  A
O684       Al685   1.929       .  S
Al685       O693   1.935       .  S
Al685       O695   1.884       .  S
Al685       O694   1.779       .  S
C686        O699   1.258       .  A
C686        C726   1.469       .  S
O687        C697   1.265       .  A
O687       Al689   1.925       .  S
O688        C701   1.267       .  A
O688       Al698   1.935       .  S
Al689       O702   1.881       .  S
Al689       O699   1.876       .  S
Al689       O694   1.781       .  S
O690        C697   1.253       .  A
O690       Al698   1.867       .  S
O691        C700   1.250       .  A
O691       Al698   1.853       .  S
O692       Al698   1.931       .  S
O693        C700   1.269       .  A
O694       Al698   1.779       .  S
O695        C696   1.256       .  A
C696        C729   1.475       .  S
C697        C737   1.461       .  S
C700        C746   1.463       .  S
C701        O702   1.262       .  A
C701        C734   1.473       .  S
O703        C718   1.266       .  A
O703       Al711   1.897       .  S
C704        O714   1.249       .  A
C704        O705   1.263       .  A
C704        C741   1.470       .  S
O705       Al707   1.925       .  S
O706        C708   1.256       .  A
O706       Al707   1.879       .  S
Al707       O715   1.857       .  S
Al707       O717   1.935       .  S
Al707       O716   1.785       .  S
C708        O721   1.266       .  A
C708        C738   1.467       .  S
O709        C719   1.260       .  A
O709       Al711   1.882       .  S
O710        C723   1.254       .  A
O710       Al720   1.882       .  S
Al711       O724   1.936       .  S
Al711       O721   1.930       .  S
Al711       O716   1.782       .  S
O712        C719   1.272       .  A
O712       Al720   1.936       .  S
O713        C722   1.271       .  A
O713       Al720   1.933       .  S
O714       Al720   1.867       .  S
O715        C722   1.253       .  A
O716       Al720   1.782       .  S
O717        C718   1.266       .  A
C718        C733   1.479       .  S
C719        C725   1.475       .  S
C722        C745   1.464       .  S
C723        O724   1.263       .  A
C723        C730   1.482       .  S
C725        H727   1.087       .  S
C726        H728   1.087       .  S
C729        H731   1.086       .  S
C730        H732   1.086   1_655  S
C733        H735   1.086       .  S
C734        H736   1.086   1_565  S
C737        H739   1.087       .  S
C738        H740   1.087       .  S
C741        H743   1.087       .  S
C742        H744   1.087       .  S
C742        C809   1.334       .  D
C745        H747   1.087       .  S
C745        C746   1.330       .  D
C746        H748   1.087       .  S
O749        C764   1.267       .  A
O749       Al757   1.933       .  S
C750        O760   1.262       .  A
C750        O751   1.261       .  A
C750        C810   1.464       .  S
O751       Al753   1.881       .  S
O752        C754   1.270       .  A
O752       Al753   1.958       .  S
Al753       O761   1.959       .  S
Al753       O763   1.889       .  S
Al753       O762   1.781       .  S
C754        O767   1.255       .  A
C754        C794   1.483   1_556  S
O755        C765   1.270       .  A
O755       Al757   1.941       .  S
O756        C769   1.264       .  A
O756       Al766   1.922       .  S
Al757       O770   1.869       .  S
Al757       O767   1.878       .  S
Al757       O762   1.778       .  S
O758        C765   1.255       .  A
O758       Al766   1.884       .  S
O759        C768   1.257       .  A
O759       Al766   1.884       .  S
O760       Al766   1.915       .  S
O761        C768   1.271       .  A
O762       Al766   1.785       .  S
O763        C764   1.261       .  A
C764        C797   1.476       .  S
C765        C805   1.480       .  S
C768        C814   1.484       .  S
C769        O770   1.253       .  A
C769        C802   1.465       .  S
O771        C786   1.257       .  A
O771       Al779   1.865       .  S
C772        O782   1.252       .  A
C772        O773   1.271       .  A
C772        C809   1.470       .  S
O773       Al775   1.950       .  S
O774        C776   1.254       .  A
O774       Al775   1.885       .  S
Al775       O783   1.881       .  S
Al775       O785   1.956       .  S
Al775       O784   1.779       .  S
C776        O789   1.262       .  A
C776        C806   1.472       .  S
O777        C787   1.257       .  A
O777       Al779   1.876       .  S
O778        C791   1.259       .  A
O778       Al788   1.882       .  S
Al779       O792   1.925       .  S
Al779       O789   1.921       .  S
Al779       O784   1.782       .  S
O780        C787   1.272       .  A
O780       Al788   1.951       .  S
O781        C790   1.268       .  A
O781       Al788   1.950       .  S
O782       Al788   1.856       .  S
O783        C790   1.254       .  A
O784       Al788   1.779       .  S
O785        C786   1.273       .  A
C786        C801   1.471       .  S
C787        C793   1.474       .  S
C790        C813   1.483       .  S
C791        O792   1.262       .  A
C791        C798   1.470       .  S
C793        H795   1.087       .  S
C794        H796   1.087       .  S
C797        H799   1.087       .  S
C798        H800   1.087   1_655  S
C801        H803   1.087       .  S
C802        H804   1.087       .  S
C805        H807   1.087   1_556  S
C806        H808   1.087       .  S
C809        H811   1.088       .  S
C810        H812   1.087       .  S
C813        H815   1.087       .  S
C813        C814   1.341       .  D
C814        H816   1.087       .  S
