geometry optimzed in LAMMPS
_audit_creation_date              2020-11-30 
_audit_creation_method            'lammps2cif' 
_symmetry_space_group_name_H-M    'P1' 
_symmetry_Int_Tables_number       1 
_symmetry_cell_setting            triclinic 
loop_ 
_symmetry_equiv_pos_as_xyz 
  x,y,z 
_cell_length_a                    30.53232719 
_cell_length_b                    30.687055668767375 
_cell_length_c                    32.24952249597215 
_cell_angle_alpha                 89.80705614584795 
_cell_angle_beta                  90.45423110413431 
_cell_angle_gamma                 119.79571360088059 
loop_ 
_atom_site_label 
_atom_site_type_symbol 
_atom_site_fract_x 
_atom_site_fract_y 
_atom_site_fract_z 
_atom_site_charge 
O1          O  0.16013306  0.39834295  0.32226459    -0.85600
O2          O  0.07201764  0.31420577  0.34230569    -0.82600
C3          C  0.06985059  0.28114376  0.31769898     0.97900
O4          O  0.09781499  0.26217180  0.32286454    -0.82700
O5          O  0.18416190  0.25954382  0.34265945    -0.85300
C6          C  0.21664196  0.29009595  0.31737584     1.02400
O7          O  0.23345829  0.33660519  0.32145804    -0.78100
O8          O  0.23765329  0.42520972  0.34325495    -0.78300
C9          C  0.20685927  0.42722687  0.31794744     1.02300
O10         O  0.18179732  0.42398658  0.40883231    -0.85600
O11         O  0.09862885  0.33516820  0.42922494    -0.82700
C12         C  0.07102147  0.28854711  0.43434775     0.97900
O13         O  0.07305011  0.25817574  0.40900583    -0.82700
O14         O  0.16371352  0.26525063  0.42926543    -0.85300
C15         C  0.21065426  0.28307729  0.43281085     1.02400
O16         O  0.24032221  0.31513147  0.40707402    -0.78100
O17         O  0.23432953  0.39871155  0.42885119    -0.78300
C18         C  0.21526509  0.42656895  0.43373340     1.02300
Cr19       Cr  0.13060793  0.36540174  0.37564802     1.93700
Cr20       Cr  0.13214472  0.26623758  0.37592098     1.93200
Cr21       Cr  0.23138216  0.36637062  0.37516678     1.39100
O22         O  0.16462423  0.33265969  0.37542459    -1.23300
O23         O  0.31309034  0.07295084  0.09353016    -0.85600
O24         O  0.39744961  0.16033802  0.07167508    -0.82600
C25         C  0.42632368  0.20682523  0.06692052     0.97900
O26         O  0.42438790  0.23774296  0.09164461    -0.82700
O27         O  0.33508095  0.23345067  0.07142167    -0.85300
C28         C  0.28820755  0.21606615  0.06775910     1.02400
O29         O  0.25849381  0.18475882  0.09389735    -0.78100
O30         O  0.26177644  0.09947111  0.07281194    -0.78300
C31         C  0.28018975  0.07095646  0.06833014     1.02300
O32         O  0.33648384  0.10078254  0.17941450    -0.85600
O33         O  0.42534204  0.18259208  0.15752933    -0.82700
C34         C  0.42867416  0.21629692  0.18186939     0.97900
O35         O  0.40092377  0.23556122  0.17733396    -0.82700
O36         O  0.31613854  0.24076978  0.15805768    -0.85300
C37         C  0.28465787  0.21096281  0.18422753     1.02400
O38         O  0.26605804  0.16423140  0.17982631    -0.78100
O39         O  0.25905642  0.07456709  0.15866400    -0.78300
C40         C  0.28972046  0.07292606  0.18429305     1.02300
Cr41       Cr  0.36561734  0.13164849  0.12550705     1.93700
Cr42       Cr  0.36655681  0.23197709  0.12459471     1.93200
Cr43       Cr  0.26623663  0.13320350  0.12621030     1.39100
O44         O  0.33288550  0.16563354  0.12537159    -1.23300
C45         C  0.03502534  0.26899787  0.46940797    -0.05700
C46         C  0.49358388  0.22123462  0.46271329    -0.33100
C47         C  0.45843779  0.20180154  0.49492635     0.36100
C48         C  0.46382808  0.22615053  0.03317375    -0.06100
C49         C  0.00287451  0.28357802  0.03226060    -0.33000
C50         C  0.03823880  0.30424192  0.00038710     0.36000
H51         H  0.48774834  0.19802459  0.43568711     0.16400
O52         O  0.41772502  0.15432488  0.49096224    -0.60500
H53         H  0.00554609  0.30749448  0.05792990     0.16400
O54         O  0.07466590  0.35396267  0.00260894    -0.60600
H55         H  0.10315604  0.35454285  0.01806710     0.43400
H56         H  0.39104593  0.15891460  0.47738392     0.43300
C57         C  0.03382269  0.26446614  0.28286319    -0.05700
C58         C  0.53240451  0.30018036  0.25599751    -0.33100
C59         C  0.49796467  0.28487513  0.22307935     0.36100
C60         C  0.46585479  0.23339147  0.21554869    -0.06100
C61         C  0.96882949  0.19827241  0.24061874    -0.33000
C62         C  0.00254614  0.21310773  0.27412671     0.36000
H63         H  0.55728848  0.33992858  0.26144074     0.16400
O64         O  0.49662675  0.32037628  0.19797391    -0.60500
H65         H  0.94457289  0.15861880  0.23439809     0.16400
O66         O  0.00388192  0.17720650  0.29869327    -0.60600
H67         H  0.97711453  0.16846584  0.31959935     0.43400
H68         H  0.51930189  0.32467419  0.17453809     0.43300
C69         C  0.27003188  0.03704563  0.21919532    -0.05700
C70         C  0.21773242  0.00429138  0.22213627    -0.33100
C71         C  0.19567770  0.46266735  0.25029972     0.36100
C72         C  0.22641294  0.46454583  0.28391342    -0.06100
C73         C  0.27737501  0.50245922  0.28466514    -0.33000
C74         C  0.30217419  0.03477341  0.24969890     0.36000
H75         H  0.19208935  0.00538976  0.19929347     0.16400
O76         O  0.14593974  0.42595212  0.24775835    -0.61300
H77         H  0.30170537  0.50525589  0.31037021     0.16400
O78         O  0.35330522  0.06700835  0.24903774    -0.60600
H79         H  0.36753040  0.04852686  0.23441054     0.43400
H80         H  0.12675757  0.44146696  0.25901475     0.43300
C81         C  0.26358327  0.03448055  0.03383889    -0.05700
C82         C  0.29754188  0.02060987  0.01768380    -0.33100
C83         C  0.28119386  0.48364673  0.48540847     0.36100
C84         C  0.23236387  0.46329458  0.46816298    -0.06100
C85         C  0.19940315  0.47872060  0.48387086    -0.33000
C86         C  0.21453534  0.01296148  0.01693705     0.36000
H87         H  0.33554009  0.03692776  0.03013314     0.16400
O88         O  0.31488300  0.47030813  0.47059836    -0.60500
H89         H  0.16147205  0.46307137  0.47142067     0.16400
O90         O  0.17969099  0.02402921  0.03288925    -0.60600
H91         H  0.16296056  0.99934167  0.05556694     0.43400
H92         H  0.33166880  0.49324679  0.44689444     0.43300
C93         C  0.23101778  0.26595896  0.46681477    -0.05700
C94         C  0.20403128  0.24915361  0.50395909    -0.33100
C95         C  0.22259582  0.23328478  0.53699549     0.36100
C96         C  0.26811331  0.23321086  0.03334213    -0.06100
C97         C  0.30138120  0.26600108  0.00336325    -0.33000
C98         C  0.28382477  0.28293297  0.97041554     0.36000
H99         H  0.16871276  0.24901289  0.50768214     0.16400
O100        O  0.19626016  0.21922843  0.57346521    -0.60500
H101        H  0.34139441  0.27870959  0.00529815     0.16400
O102        O  0.31788730  0.31456119  0.94179502    -0.60600
H103        H  0.33197888  0.34872502  0.95377225     0.43400
H104        H  0.16772800  0.18483491  0.56844517     0.43300
C105        C  0.26848083  0.23115554  0.21920218    -0.05700
C106        C  0.28295773  0.28240286  0.22006504    -0.33100
C107        C  0.26719095  0.30234059  0.25191120     0.36100
C108        C  0.23573653  0.27086289  0.28375253    -0.06100
C109        C  0.22231352  0.21989043  0.28340243    -0.33000
C110        C  0.23845200  0.20006338  0.25178770     0.36000
H111        H  0.30631130  0.30730969  0.19569143     0.16400
O112        O  0.28176439  0.35242575  0.25080923    -0.60500
H113        H  0.19913796  0.19499224  0.30784872     0.16400
O114        O  0.22553671  0.15043007  0.25375039    -0.60600
H115        H  0.19113592  0.13169986  0.24156360     0.43400
H116        H  0.31562383  0.36977375  0.26408189     0.43300
O117        O  0.16348317  0.39924836  0.82058765    -0.85600
O118        O  0.07462609  0.31743916  0.84247523    -0.82600
C119        C  0.07129495  0.28373583  0.81813402     0.97900
O120        O  0.09904669  0.26447289  0.82266825    -0.82700
O121        O  0.18383332  0.25926630  0.84194302    -0.85300
C122        C  0.21531398  0.28907427  0.81577367     1.02400
O123        O  0.23391386  0.33580546  0.82017607    -0.78100
O124        O  0.24091120  0.42546714  0.84133836    -0.78300
C125        C  0.21024636  0.42710561  0.81570870     1.02300
O126        O  0.18687829  0.42708317  0.90647077    -0.85600
O127        O  0.10252107  0.33969496  0.92832833    -0.82700
C128        C  0.07364769  0.29320758  0.93308289     0.97900
O129        O  0.07558415  0.26229014  0.90835878    -0.82700
O130        O  0.16489186  0.26658312  0.92857940    -0.85300
C131        C  0.21176546  0.28396888  0.93224217     1.02400
O132        O  0.24147905  0.31527818  0.90610497    -0.78100
O133        O  0.23819282  0.40056433  0.92719039    -0.78300
C134        C  0.21977895  0.42907865  0.93167112     1.02300
Cr135      Cr  0.13435147  0.36838396  0.87449573     1.93700
Cr136      Cr  0.13341481  0.26805704  0.87540716     1.93200
Cr137      Cr  0.23373382  0.36683221  0.87379216     1.39100
O138        O  0.16708487  0.33440045  0.87463097    -1.23300
O139        O  0.31816910  0.07605003  0.59116666    -0.85600
O140        O  0.40133977  0.16486809  0.57077384    -0.82600
C141        C  0.42894900  0.21148921  0.56565211     0.97900
O142        O  0.42692087  0.24186065  0.59099424    -0.82700
O143        O  0.33625954  0.23478950  0.57073342    -0.85300
C144        C  0.28931911  0.21696435  0.56718757     1.02400
O145        O  0.25964995  0.18490953  0.59292350    -0.78100
O146        O  0.26563934  0.10132756  0.57114693    -0.78300
C147        C  0.28470177  0.07346834  0.56626540     1.02300
O148        O  0.33983368  0.10169354  0.67773403    -0.85600
O149        O  0.42795063  0.18582943  0.65769296    -0.82700
C150        C  0.43011850  0.21889183  0.68229958     0.97900
O151        O  0.40215441  0.23786418  0.67713464    -0.82700
O152        O  0.31580963  0.24049594  0.65733925    -0.85300
C153        C  0.28332859  0.20994390  0.68262236     1.02400
O154        O  0.26651125  0.16343461  0.67853968    -0.78100
O155        O  0.26231371  0.07482894  0.65674372    -0.78300
C156        C  0.29310725  0.07281067  0.68205119     1.02300
Cr157      Cr  0.36935971  0.13463449  0.62435066     1.93700
Cr158      Cr  0.36782629  0.23380038  0.62407818     1.93200
Cr159      Cr  0.26858719  0.13366889  0.62483122     1.39100
O160        O  0.33534507  0.16737818  0.62457405    -1.23300
C161        C  0.03614257  0.27388176  0.96682918    -0.05700
C162        C  0.49709087  0.21645501  0.96773927    -0.33100
C163        C  0.46172838  0.19579106  0.99961405     0.36100
C164        C  0.46494673  0.23103856  0.53059304    -0.06100
C165        C  0.00638663  0.27880445  0.53728632    -0.33000
C166        C  0.04153183  0.29823745  0.50507256     0.36000
H167        H  0.49441657  0.19253928  0.94206847     0.16400
O168        O  0.42529946  0.14607093  0.99739161    -0.60500
H169        H  0.01222012  0.30201655  0.56431068     0.16400
O170        O  0.08224081  0.34571692  0.50903367    -0.60600
H171        H  0.10892352  0.34113255  0.52261176     0.43400
H172        H  0.39680609  0.14549348  0.98194142     0.43300
C173        C  0.03411374  0.26664155  0.78445510    -0.05700
C174        C  0.53114238  0.30176417  0.75937655    -0.33100
C175        C  0.49742696  0.28692839  0.72586782     0.36100
C176        C  0.46614683  0.23556972  0.71713457    -0.06100
C177        C  0.96756420  0.19985320  0.74400562    -0.33000
C178        C  0.00200472  0.21515795  0.77692331     0.36000
H179        H  0.55540147  0.34141783  0.76559519     0.16400
O180        O  0.49609543  0.32282915  0.70129764    -0.60500
H181        H  0.94268136  0.16010504  0.73856124     0.16400
O182        O  0.00334426  0.17965614  0.80202692    -0.60600
H183        H  0.98069499  0.17537980  0.82547682     0.43400
H184        H  0.52286267  0.33156527  0.68039221     0.43300
C185        C  0.27355298  0.03549152  0.71608513    -0.05700
C186        C  0.22259222  0.99757503  0.71533089    -0.33100
C187        C  0.19778996  0.46525969  0.75030517     0.36100
C188        C  0.22993381  0.46298413  0.78080537    -0.06100
C189        C  0.28223379  0.49573351  0.77786029    -0.33000
C190        C  0.30428658  0.03737272  0.74970112     0.36000
H191        H  0.19826338  0.99477617  0.68962388     0.16400
O192        O  0.14665819  0.43302912  0.75097027    -0.61300
H193        H  0.30787803  0.49463176  0.80070004     0.16400
O194        O  0.35402313  0.07409099  0.75224493    -0.60600
H195        H  0.37320885  0.05857829  0.74099173     0.43400
H196        H  0.13243796  0.45151393  0.76559971     0.43300
C197        C  0.26760128  0.03674141  0.53183647    -0.05700
C198        C  0.30055711  0.02130584  0.51613468    -0.33100
C199        C  0.28543377  0.48707825  0.98306134     0.36100
C200        C  0.23638476  0.46555547  0.96616134    -0.06100
C201        C  0.20242434  0.47942330  0.98231710    -0.33000
C202        C  0.21877478  0.01639761  0.51458535     0.36000
H203        H  0.33848562  0.03694842  0.52858903     0.16400
O204        O  0.32027969  0.47601353  0.96710793    -0.60500
H205        H  0.16442537  0.46310259  0.96986887     0.16400
O206        O  0.18509018  0.02974615  0.52938860    -0.60600
H207        H  0.16830226  0.00681471  0.55309539     0.43400
H208        H  0.33700071  0.50069471  0.94442397     0.43300
C209        C  0.23185996  0.26682352  0.96665852    -0.05700
C210        C  0.19859212  0.23403306  0.99663724    -0.33100
C211        C  0.21614841  0.21710082  0.02958472     0.36100
C212        C  0.26895721  0.23408515  0.53318423    -0.06100
C213        C  0.29594421  0.25089134  0.49604018    -0.33000
C214        C  0.27737975  0.26676037  0.46300381     0.36000
H215        H  0.15857890  0.22132454  0.99470239     0.16400
O216        O  0.18208555  0.18547154  0.05820459    -0.60500
H217        H  0.33126282  0.25103221  0.49231723     0.16400
O218        O  0.30371608  0.28081791  0.42653444    -0.60600
H219        H  0.33224737  0.31521180  0.43155497     0.43400
H220        H  0.16799329  0.15130830  0.04622613     0.43300
C221        C  0.26423417  0.22917678  0.71624596    -0.05700
C222        C  0.27765961  0.28014987  0.71659820    -0.33100
C223        C  0.26152159  0.29997632  0.74821383     0.36100
C224        C  0.23149076  0.26888277  0.78079799    -0.06100
C225        C  0.21701110  0.21763489  0.77993267    -0.33000
C226        C  0.23277727  0.19769783  0.74808567     0.36000
H227        H  0.30083679  0.30504898  0.69215301     0.16400
O228        O  0.27443931  0.34961040  0.74625334    -0.60500
H229        H  0.19365563  0.19272695  0.80430497     0.16400
O230        O  0.21820061  0.14761184  0.74918518    -0.60600
H231        H  0.18434064  0.13026642  0.73591327     0.43400
H232        H  0.30883998  0.36833857  0.75844102     0.43300
O233        O  0.16336953  0.89988249  0.32223584    -0.85600
O234        O  0.07504408  0.81590009  0.34205651    -0.82600
C235        C  0.07268435  0.78298204  0.31722704     0.97900
O236        O  0.10048992  0.76378087  0.32196845    -0.82700
O237        O  0.18611590  0.76003901  0.34210233    -0.85300
C238        C  0.21819253  0.79028229  0.31648316     1.02400
O239        O  0.23577463  0.83689620  0.32079398    -0.78100
O240        O  0.24093995  0.92588997  0.34268928    -0.78300
C241        C  0.21012444  0.92857139  0.31787654     1.02300
O242        O  0.18498268  0.92513404  0.40843806    -0.85600
O243        O  0.10140261  0.83616198  0.42883991    -0.82700
C244        C  0.07325670  0.78949952  0.43338963     0.97900
O245        O  0.07527073  0.75941736  0.40776530    -0.82700
O246        O  0.16538657  0.76595048  0.42843398    -0.85300
C247        C  0.21224143  0.78358540  0.43228806     1.02400
O248        O  0.24233108  0.81546059  0.40664879    -0.78100
O249        O  0.23780802  0.90008351  0.42817389    -0.78300
C250        C  0.21893983  0.92816683  0.43294394     1.02300
Cr251      Cr  0.13365643  0.86672651  0.37538832     1.93700
Cr252      Cr  0.13438056  0.76728245  0.37506988     1.93200
Cr253      Cr  0.23416036  0.86700515  0.37458845     1.39100
O254        O  0.16736535  0.83372707  0.37489938    -1.23300
O255        O  0.31373405  0.57199556  0.09293181    -0.85600
O256        O  0.39920657  0.65891689  0.07263033    -0.82600
C257        C  0.42778488  0.70536578  0.06728767     0.97900
O258        O  0.42519065  0.73664899  0.09115967    -0.82700
O259        O  0.33566503  0.73227702  0.07039606    -0.85300
C260        C  0.28879201  0.71504746  0.06669594     1.02400
O261        O  0.25907991  0.68384611  0.09283762    -0.78100
O262        O  0.26309793  0.59910951  0.07159789    -0.78300
C263        C  0.28153279  0.57061707  0.06721791     1.02300
O264        O  0.33487019  0.59889353  0.17952730    -0.85600
O265        O  0.42478892  0.68057107  0.15906189    -0.82700
C266        C  0.42879141  0.71539889  0.18238024     0.97900
O267        O  0.40165407  0.73522280  0.17683551    -0.82700
O268        O  0.31627792  0.73952399  0.15708469    -0.85300
C269        C  0.28401082  0.70963676  0.18280728     1.02400
O270        O  0.26544901  0.66287390  0.17851311    -0.78100
O271        O  0.25804779  0.57275076  0.15733942    -0.78300
C272        C  0.28797256  0.57096631  0.18365643     1.02300
Cr273      Cr  0.36566647  0.63013627  0.12598408     1.93700
Cr274      Cr  0.36705494  0.73089319  0.12387170     1.93200
Cr275      Cr  0.26646563  0.63210741  0.12504599     1.39100
O276        O  0.33324804  0.66446948  0.12496144    -1.23300
C277        C  0.03673919  0.76935684  0.46808989    -0.05700
C278        C  0.49492693  0.72123163  0.46539452    -0.33100
C279        C  0.45967389  0.70082380  0.49744110     0.36100
C280        C  0.46549613  0.72412336  0.03355656    -0.06100
C281        C  0.00261745  0.78627018  0.03246410    -0.33000
C282        C  0.03780751  0.80635925  0.00037081     0.36000
H283        H  0.49133619  0.69746296  0.43932483     0.16400
O284        O  0.42184225  0.65173153  0.49447507    -0.60500
H285        H  0.00644494  0.81022062  0.05846256     0.16400
O286        O  0.07549582  0.85556583  0.00284001    -0.60600
H287        H  0.10263351  0.85512019  0.01962827     0.43400
H288        H  0.39302750  0.65305892  0.48140725     0.43300
C289        C  0.03652909  0.76683046  0.28272044    -0.05700
C290        C  0.53622998  0.80084393  0.25332757    -0.33100
C291        C  0.50197841  0.78453284  0.22014537     0.36100
C292        C  0.46616301  0.73326874  0.21611236    -0.06100
C293        C  0.96768113  0.70148568  0.24291228    -0.33000
C294        C  0.00181641  0.71573051  0.27604922     0.36000
H295        H  0.56358830  0.84037389  0.25630827     0.16400
O296        O  0.50437805  0.81872058  0.19142482    -0.60500
H297        H  0.94080230  0.66207390  0.23810095     0.16400
O298        O  0.00016787  0.67968896  0.30230082    -0.60600
H299        H  0.97668509  0.67665156  0.32467780     0.43400
H300        H  0.52453001  0.81672442  0.16825978     0.43300
C301        C  0.26746128  0.53496157  0.21853417    -0.05700
C302        C  0.21627045  0.49754909  0.21806146    -0.33100
C303        C  0.19749254  0.96941553  0.25427187     0.36100
C304        C  0.22969724  0.96631968  0.28424905    -0.06100
C305        C  0.28194385  0.99971224  0.28174299    -0.33000
C306        C  0.29792225  0.53735470  0.25250550     0.36000
H307        H  0.19198286  0.49483258  0.19234528     0.16400
O308        O  0.14625650  0.93794693  0.25537283    -0.61300
H309        H  0.30756403  0.99866792  0.30463874     0.16400
O310        O  0.34752728  0.57434985  0.25527667    -0.60600
H311        H  0.36705417  0.55898724  0.24446750     0.43400
H312        H  0.13294118  0.95650912  0.27112339     0.43300
C313        C  0.26537252  0.53469333  0.03234558    -0.05700
C314        C  0.29943729  0.52103125  0.01606536    -0.33100
C315        C  0.28554634  0.98639300  0.48376278     0.36100
C316        C  0.23651582  0.96559201  0.46687120    -0.06100
C317        C  0.20371085  0.98134200  0.48235681    -0.33000
C318        C  0.21648959  0.51354321  0.01515538     0.36000
H319        H  0.33743181  0.53740097  0.02852847     0.16400
O320        O  0.31944682  0.97363124  0.46845142    -0.60500
H321        H  0.16580084  0.96579289  0.46987904     0.16400
O322        O  0.18183713  0.52518721  0.03062461    -0.60600
H323        H  0.16538053  0.50134827  0.05386274     0.43400
H324        H  0.33631618  0.99724158  0.44516367     0.43300
C325        C  0.23188854  0.76634000  0.46657931    -0.05700
C326        C  0.20433614  0.74986492  0.50348047    -0.33100
C327        C  0.22202854  0.73356816  0.53676686     0.36100
C328        C  0.26849875  0.73246326  0.03256170    -0.06100
C329        C  0.30184073  0.77274689  0.00756036    -0.33000
C330        C  0.28385606  0.79049836  0.97548531     0.36000
H331        H  0.16924026  0.75026853  0.50679353     0.16400
O332        O  0.19518083  0.71974480  0.57298747    -0.60500
H333        H  0.34218873  0.79105743  0.01304393     0.16400
O334        O  0.31807064  0.83032509  0.95229848    -0.60600
H335        H  0.32218068  0.86064831  0.96676765     0.43400
H336        H  0.16695098  0.68516752  0.56803732     0.43300
C337        C  0.26713815  0.72988345  0.21726846    -0.05700
C338        C  0.28229461  0.78130284  0.21821351    -0.33100
C339        C  0.26707108  0.80161955  0.25015991     0.36100
C340        C  0.23578783  0.77044408  0.28219248    -0.06100
C341        C  0.22084202  0.71907928  0.28130977    -0.33000
C342        C  0.23607645  0.69878194  0.24941580     0.36000
H343        H  0.30594605  0.80610554  0.19391349     0.16400
O344        O  0.28207412  0.85180475  0.24902097    -0.60500
H345        H  0.19720511  0.69422570  0.30558871     0.16400
O346        O  0.22124131  0.64863625  0.25070392    -0.60600
H347        H  0.18724259  0.63133286  0.23765311     0.43400
H348        H  0.31622729  0.86897958  0.26175831     0.43300
O349        O  0.16509431  0.90114441  0.82047106    -0.85600
O350        O  0.07517438  0.81946884  0.84093612    -0.82600
C351        C  0.07117092  0.78464016  0.81761834     0.97900
O352        O  0.09830674  0.76481472  0.82316398    -0.82700
O353        O  0.18368055  0.76050909  0.84291549    -0.85300
C354        C  0.21594935  0.79039517  0.81719346     1.02400
O355        O  0.23451092  0.83715828  0.82148589    -0.78100
O356        O  0.24191640  0.92728431  0.84265826    -0.78300
C357        C  0.21199205  0.92907020  0.81634162     1.02300
O358        O  0.18623113  0.92804212  0.90706701    -0.85600
O359        O  0.10075616  0.84112286  0.92736802    -0.82700
C360        C  0.07217675  0.79467420  0.93271078     0.97900
O361        O  0.07477047  0.76339022  0.90883943    -0.82700
O362        O  0.16429511  0.76775839  0.92960335    -0.85300
C363        C  0.21116799  0.78498576  0.93330218     1.02400
O364        O  0.24088023  0.81618743  0.90716079    -0.78100
O365        O  0.23686613  0.90092646  0.92840022    -0.78300
C366        C  0.21843241  0.92941986  0.93278060     1.02300
Cr367      Cr  0.13429743  0.86990234  0.87401437     1.93700
Cr368      Cr  0.13290521  0.76914329  0.87612784     1.93200
Cr369      Cr  0.23349629  0.86792701  0.87495233     1.39100
O370        O  0.16671393  0.83556704  0.87503748    -1.23300
O371        O  0.31497920  0.57489774  0.59156304    -0.85600
O372        O  0.39855879  0.66386936  0.57116157    -0.82600
C373        C  0.42670357  0.71053183  0.56661113     0.97900
O374        O  0.42468909  0.74061387  0.59223541    -0.82700
O375        O  0.33457111  0.73407843  0.57156973    -0.85300
C376        C  0.28771606  0.71644349  0.56771704     1.02400
O377        O  0.25762758  0.68456879  0.59335715    -0.78100
O378        O  0.26215199  0.59994706  0.57182918    -0.78300
C379        C  0.28102149  0.57186503  0.56705782     1.02300
O380        O  0.33659310  0.60014797  0.67776552    -0.85600
O381        O  0.42491786  0.68413068  0.65794547    -0.82700
C382        C  0.42727737  0.71704850  0.68277515     0.97900
O383        O  0.39947195  0.73624976  0.67803345    -0.82700
O384        O  0.31384469  0.73998901  0.65790203    -0.85300
C385        C  0.28176986  0.70974573  0.68352230     1.02400
O386        O  0.26418763  0.66313180  0.67921124    -0.78100
O387        O  0.25902242  0.57413890  0.65731235    -0.78300
C388        C  0.28983845  0.57145790  0.68212459     1.02300
Cr389      Cr  0.36630549  0.63330449  0.62461327     1.93700
Cr390      Cr  0.36557964  0.73274742  0.62493271     1.93200
Cr391      Cr  0.26580052  0.63302418  0.62541546     1.39100
O392        O  0.33259573  0.66630301  0.62510316    -1.23300
C393        C  0.03446516  0.77591742  0.96644159    -0.05700
C394        C  0.49734545  0.71376980  0.96753517    -0.33100
C395        C  0.46215407  0.69368141  0.99962754     0.36100
C396        C  0.46322033  0.73067448  0.53190998    -0.06100
C397        C  0.00503501  0.77879779  0.53460687    -0.33000
C398        C  0.04028807  0.79920599  0.50256053     0.36000
H399        H  0.49351847  0.68981900  0.94153714     0.16400
O400        O  0.42446478  0.64447524  0.99715769    -0.60500
H401        H  0.00862772  0.80256509  0.56067820     0.16400
O402        O  0.07812236  0.84829692  0.50552865    -0.60600
H403        H  0.10693627  0.84696597  0.51859373     0.43400
H404        H  0.39732896  0.64492169  0.98036778     0.43300
C405        C  0.03379946  0.76677009  0.78388606    -0.05700
C406        C  0.53227588  0.79854642  0.75709341    -0.33100
C407        C  0.49814013  0.78430099  0.72395679     0.36100
C408        C  0.46343253  0.73320032  0.71728218    -0.06100
C409        C  0.96373391  0.69919358  0.74667079    -0.33000
C410        C  0.99798484  0.71550575  0.77985331     0.36000
H411        H  0.55915092  0.83795882  0.76190698     0.16400
O412        O  0.49978335  0.82034305  0.69770873    -0.60500
H413        H  0.93637626  0.65966339  0.74369037     0.16400
O414        O  0.99558525  0.68131875  0.80857460    -0.60600
H415        H  0.97543197  0.68331428  0.83173867     0.43400
H416        H  0.52326095  0.82338051  0.67532745     0.43300
C417        C  0.27026652  0.53370906  0.71575134    -0.05700
C418        C  0.21801938  0.50032050  0.71826089    -0.33100
C419        C  0.20204464  0.96267904  0.74749027     0.36100
C420        C  0.23250387  0.96507510  0.78146397    -0.06100
C421        C  0.28369344  0.00249074  0.78193920    -0.33000
C422        C  0.30247271  0.53060887  0.74572445     0.36000
H423        H  0.19239805  0.50136814  0.69536812     0.16400
O424        O  0.15244131  0.92568023  0.74471642    -0.61300
H425        H  0.30797960  0.00520955  0.80765726     0.16400
O426        O  0.35370945  0.56207255  0.74461914    -0.60600
H427        H  0.36701838  0.54350967  0.72886165     0.43400
H428        H  0.13291030  0.94104033  0.75552139     0.43300
C429        C  0.26344670  0.53444144  0.53312967    -0.05700
C430        C  0.29625648  0.51870093  0.51763793    -0.33100
C431        C  0.28347581  0.98649038  0.98484505     0.36100
C432        C  0.23459389  0.96534371  0.96765322    -0.06100
C433        C  0.20053115  0.97900906  0.98393244    -0.33000
C434        C  0.21441287  0.51363239  0.51624354     0.36000
H435        H  0.33416915  0.53425669  0.53011146     0.16400
O436        O  0.31812657  0.97484320  0.96937716    -0.60500
H437        H  0.16253736  0.96264213  0.97146820     0.16400
O438        O  0.18050831  0.52638500  0.53156126    -0.60600
H439        H  0.16364941  0.50277632  0.55485162     0.43400
H440        H  0.33458062  0.99867733  0.94613590     0.43300
C441        C  0.23146133  0.76756760  0.96743466    -0.05700
C442        C  0.19811945  0.72728316  0.99243532    -0.33100
C443        C  0.21610420  0.70953134  0.02451009     0.36100
C444        C  0.26806772  0.73368789  0.53342600    -0.06100
C445        C  0.29561985  0.75016272  0.49652476    -0.33000
C446        C  0.27792770  0.76645974  0.46323861     0.36000
H447        H  0.15777147  0.70897257  0.98695162     0.16400
O448        O  0.18188985  0.66970326  0.04769589    -0.60500
H449        H  0.33071586  0.74975937  0.49321160     0.16400
O450        O  0.30477640  0.78028444  0.42701861    -0.60600
H451        H  0.33299835  0.81486729  0.43196617     0.43400
H452        H  0.17777930  0.63938115  0.03322508     0.43300
C453        C  0.26417622  0.72958450  0.71781367    -0.05700
C454        C  0.27912492  0.78094993  0.71869668    -0.33100
C455        C  0.26389012  0.80124819  0.75058938     0.36100
C456        C  0.23282434  0.77014704  0.78273500    -0.06100
C457        C  0.21766663  0.71872720  0.78179085    -0.33000
C458        C  0.23289133  0.69840960  0.74984581     0.36000
H459        H  0.30276416  0.80580342  0.69441869     0.16400
O460        O  0.27872911  0.85139477  0.74930154    -0.60500
H461        H  0.19401310  0.69392499  0.80609025     0.16400
O462        O  0.21788743  0.64822420  0.75098540    -0.60600
H463        H  0.18373596  0.63104997  0.73824514     0.43400
H464        H  0.31272517  0.86869526  0.76235713     0.43300
O465        O  0.66593612  0.39892367  0.31940951    -0.85600
O466        O  0.57621309  0.31602045  0.33896728    -0.82600
C467        C  0.57247487  0.28165511  0.31516349     0.97900
O468        O  0.59947035  0.26166717  0.32042809    -0.82700
O469        O  0.68434362  0.25727961  0.34018462    -0.85300
C470        C  0.71540762  0.28723469  0.31386353     1.02400
O471        O  0.73432942  0.33397433  0.31854712    -0.78100
O472        O  0.74283374  0.42420964  0.34094012    -0.78300
C473        C  0.71284906  0.42719248  0.31536109     1.02300
O474        O  0.68700237  0.42353668  0.40617880    -0.85600
O475        O  0.60126686  0.33574139  0.42575121    -0.82700
C476        C  0.57251720  0.28918234  0.43063686     0.97900
O477        O  0.57463162  0.25835987  0.40594574    -0.82700
O478        O  0.66453072  0.26373168  0.42679427    -0.85300
C479        C  0.71136609  0.28086413  0.43048860     1.02400
O480        O  0.74111725  0.31155501  0.40404166    -0.78100
O481        O  0.73774083  0.39630944  0.42657001    -0.78300
C482        C  0.71956016  0.42494646  0.43156322     1.02300
Cr483      Cr  0.63495977  0.36600472  0.37260088     1.93700
Cr484      Cr  0.63341012  0.26525534  0.37337872     1.93200
Cr485      Cr  0.73403263  0.36404632  0.37254067     1.39100
O486        O  0.66728335  0.33174140  0.37276609    -1.23300
O487        O  0.81773385  0.07477987  0.08960761    -0.85600
O488        O  0.90095310  0.16493379  0.07006574    -0.82600
C489        C  0.92876002  0.21174442  0.06600930     0.97900
O490        O  0.92650495  0.24127701  0.09195575    -0.82700
O491        O  0.83635020  0.23396918  0.06975655    -0.85300
C492        C  0.78946358  0.21616016  0.06584285     1.02400
O493        O  0.75921285  0.18343713  0.09084070    -0.78100
O494        O  0.76599885  0.10043573  0.06877834    -0.78300
C495        C  0.78462770  0.07216664  0.06426930     1.02300
O496        O  0.83846301  0.09985544  0.17616903    -0.85600
O497        O  0.92669373  0.18449904  0.15674176    -0.82700
C498        C  0.92873661  0.21727646  0.18158630     0.97900
O499        O  0.90008204  0.23562590  0.17707028    -0.82700
O500        O  0.81383331  0.23830214  0.15556425    -0.85300
C501        C  0.78087525  0.20751288  0.18028785     1.02400
O502        O  0.76430700  0.16105046  0.17620681    -0.78100
O503        O  0.76108648  0.07287223  0.15458509    -0.78300
C504        C  0.79165721  0.07111312  0.18033847     1.02300
Cr505      Cr  0.86851193  0.13343448  0.12311063     1.93700
Cr506      Cr  0.86667316  0.23231864  0.12359993     1.93200
Cr507      Cr  0.76764076  0.13192425  0.12264253     1.39100
O508        O  0.83433351  0.16590039  0.12337925    -1.23300
C509        C  0.53541759  0.27006579  0.46493298    -0.05700
C510        C  0.99348602  0.22004340  0.46740809    -0.33100
C511        C  0.95836427  0.20063133  0.49959382     0.36100
C512        C  0.96507244  0.23266566  0.03149796    -0.06100
C513        C  0.50228986  0.27668921  0.03427216    -0.33000
C514        C  0.53772180  0.29720943  0.00263038     0.36000
H515        H  0.98758154  0.19684713  0.44036972     0.16400
O516        O  0.91766219  0.15318086  0.49559046    -0.60500
H517        H  0.50524280  0.30067213  0.05997289     0.16400
O518        O  0.57495068  0.34653738  0.00559695    -0.60600
H519        H  0.60388250  0.34577792  0.01904369     0.43400
H520        H  0.89089417  0.15784426  0.48229720     0.43300
C521        C  0.53555557  0.26452989  0.28122444    -0.05700
C522        C  0.03097295  0.30039890  0.25770687    -0.33100
C523        C  0.99751689  0.28553843  0.22398119     0.36100
C524        C  0.96547747  0.23415998  0.21584765    -0.06100
C525        C  0.46906779  0.19772533  0.24069093    -0.33000
C526        C  0.50334549  0.21301808  0.27372624     0.36000
H527        H  0.05544752  0.34004989  0.26377734     0.16400
O528        O  0.99735038  0.32137185  0.19854298    -0.60500
H529        H  0.44415759  0.15798557  0.23523837     0.16400
O530        O  0.50416652  0.17748859  0.29913945    -0.60600
H531        H  0.48132692  0.17347571  0.32237271     0.43400
H532        H  0.02020918  0.32510952  0.17537498     0.43300
C533        C  0.77183687  0.03451654  0.21493122    -0.05700
C534        C  0.72122698  0.99578018  0.21387923    -0.33100
C535        C  0.70180457  0.46659750  0.24993137     0.36100
C536        C  0.73328451  0.46487573  0.28137430    -0.06100
C537        C  0.78532769  0.49977787  0.28009210    -0.33000
C538        C  0.80197572  0.03825176  0.24959577     0.36000
H539        H  0.69735871  0.99165459  0.18742832     0.16400
O540        O  0.65107589  0.43267251  0.24892503    -0.61300
H541        H  0.81048973  0.49945707  0.30381457     0.16400
O542        O  0.85123870  0.07601670  0.25255907    -0.60600
H543        H  0.87153245  0.06093216  0.24295772     0.43400
H544        H  0.63490590  0.44962000  0.26308803     0.43300
C545        C  0.76710620  0.03465186  0.03011025    -0.05700
C546        C  0.78685512  0.00198026  0.02698684    -0.33100
C547        C  0.77554532  0.46809820  0.49405095     0.36100
C548        C  0.73652833  0.46140322  0.46649845    -0.06100
C549        C  0.71290611  0.49025099  0.47249296    -0.33000
C550        C  0.73088915  0.03054150  0.00058262     0.36000
H551        H  0.81454865  0.00403069  0.04927719     0.16400
O552        O  0.79952850  0.44061320  0.48994835    -0.60500
H553        H  0.68266188  0.48586004  0.45203146     0.16400
O554        O  0.71070695  0.06170123  0.00184890    -0.60600
H555        H  0.67752214  0.04183622  0.01552842     0.43400
H556        H  0.82889806  0.46109033  0.47185822     0.43300
C557        C  0.73147216  0.26475559  0.46557587    -0.05700
C558        C  0.69991084  0.23939297  0.49913437    -0.33100
C559        C  0.71789180  0.22463419  0.53325764     0.36100
C560        C  0.76954579  0.23413428  0.03251155    -0.06100
C561        C  0.78986660  0.24096012  0.99265163    -0.33000
C562        C  0.77049420  0.25668485  0.96013767     0.36000
H563        H  0.66109092  0.23130728  0.49924477     0.16400
O564        O  0.68590113  0.20106786  0.56571104    -0.60500
H565        H  0.82014465  0.23313160  0.98654807     0.16400
O566        O  0.78913390  0.26049951  0.92089820    -0.60600
H567        H  0.82201337  0.29225351  0.92080859     0.43400
H568        H  0.66679772  0.16503631  0.55784748     0.43300
C569        C  0.76147704  0.22672719  0.21340314    -0.05700
C570        C  0.77707523  0.27822031  0.21463817    -0.33100
C571        C  0.76195887  0.29839320  0.24660071     0.36100
C572        C  0.73056989  0.26700511  0.27843376    -0.06100
C573        C  0.71345911  0.21520712  0.27635241    -0.33000
C574        C  0.72830967  0.19498457  0.24420750     0.36000
H575        H  0.80155990  0.30335168  0.19085960     0.16400
O576        O  0.77761537  0.34874724  0.24591908    -0.60500
H577        H  0.68878241  0.19005967  0.30002720     0.16400
O578        O  0.71116163  0.14433100  0.24403767    -0.60600
H579        H  0.67907352  0.12931756  0.22804258     0.43400
H580        H  0.81187248  0.36542907  0.25844935     0.43300
O581        O  0.66150172  0.40018078  0.82383239    -0.85600
O582        O  0.57327152  0.31553627  0.84325786    -0.82600
C583        C  0.57122964  0.28275990  0.81841264     0.97900
O584        O  0.59988442  0.26441077  0.82292813    -0.82700
O585        O  0.68613273  0.26173453  0.84443299    -0.85300
C586        C  0.71909072  0.29252439  0.81970957     1.02400
O587        O  0.73565895  0.33898675  0.82379160    -0.78100
O588        O  0.73887827  0.42716405  0.84541646    -0.78300
C589        C  0.70830744  0.42892357  0.81966347     1.02300
O590        O  0.68223036  0.42525355  0.91039390    -0.85600
O591        O  0.59901190  0.33509918  0.92993425    -0.82700
C592        C  0.57120549  0.28828846  0.93399021     0.97900
O593        O  0.57346011  0.25875662  0.90804266    -0.82700
O594        O  0.66361501  0.26606478  0.93024118    -0.85300
C595        C  0.71050159  0.28387379  0.93415487     1.02400
O596        O  0.74075235  0.31659719  0.90915727    -0.78100
O597        O  0.73396533  0.39959727  0.93122235    -0.78300
C598        C  0.71533614  0.42786599  0.93573218     1.02300
Cr599      Cr  0.63145277  0.36660004  0.87688991     1.93700
Cr600      Cr  0.63329244  0.26771649  0.87639812     1.93200
Cr601      Cr  0.73232435  0.36811100  0.87735708     1.39100
O602        O  0.66563163  0.33413462  0.87662004    -1.23300
O603        O  0.81296945  0.07650006  0.59382013    -0.85600
O604        O  0.89870626  0.16429573  0.57425090    -0.82600
C605        C  0.92745628  0.21085474  0.56936553     0.97900
O606        O  0.92534159  0.24167707  0.59405668    -0.82700
O607        O  0.83544370  0.23630699  0.57320536    -0.85300
C608        C  0.78860850  0.21917486  0.56950988     1.02400
O609        O  0.75885615  0.18848314  0.59595581    -0.78100
O610        O  0.76223119  0.10372739  0.57342854    -0.78300
C611        C  0.78041132  0.07508978  0.56843574     1.02300
O612        O  0.83403171  0.10111103  0.68059026    -0.85600
O613        O  0.92375590  0.18401439  0.66103602    -0.82700
C614        C  0.92749349  0.21837950  0.68483985     0.97900
O615        O  0.90049903  0.23836838  0.67957386    -0.82700
O616        O  0.81562743  0.24275831  0.65981435    -0.85300
C617        C  0.78456152  0.21280319  0.68613436     1.02400
O618        O  0.76563984  0.16606351  0.68145070    -0.78100
O619        O  0.75713479  0.07582710  0.65905880    -0.78300
C620        C  0.78711855  0.07284282  0.68463789     1.02300
Cr621      Cr  0.86501069  0.13403133  0.62740005     1.93700
Cr622      Cr  0.86656180  0.23478168  0.62662198     1.93200
Cr623      Cr  0.76593839  0.13599112  0.62745763     1.39100
O624        O  0.83268773  0.16829538  0.62723386    -1.23300
C625        C  0.53489474  0.26736668  0.96850260    -0.05700
C626        C  0.99768283  0.22334221  0.96573158    -0.33100
C627        C  0.96224927  0.20282190  0.99737224     0.36100
C628        C  0.96455600  0.22997112  0.53506929    -0.06100
C629        C  0.50648966  0.27999074  0.53259589    -0.33000
C630        C  0.54161206  0.29940314  0.50041061     0.36000
H631        H  0.99473268  0.19935861  0.94003229     0.16400
O632        O  0.92502292  0.15349289  0.99440668    -0.60500
H633        H  0.51239610  0.30318493  0.55963608     0.16400
O634        O  0.58231713  0.34685142  0.50441633    -0.60600
H635        H  0.60908542  0.34218311  0.51770306     0.43400
H636        H  0.89609147  0.15424928  0.98095572     0.43300
C637        C  0.53448963  0.26587662  0.78415116    -0.05700
C638        C  0.03089843  0.30230800  0.75931500    -0.33100
C639        C  0.99662004  0.28701577  0.72628018     0.36100
C640        C  0.96441158  0.23550403  0.71878014    -0.06100
C641        C  0.46899230  0.19963713  0.74229408    -0.33000
C642        C  0.50244715  0.21449812  0.77602046     0.36000
H643        H  0.05580743  0.34204772  0.76476874     0.16400
O644        O  0.99579691  0.32254587  0.70086915    -0.60500
H645        H  0.44451510  0.15998608  0.73622576     0.16400
O646        O  0.50260948  0.17866548  0.80146226    -0.60600
H647        H  0.47974139  0.17492371  0.82462414     0.43400
H648        H  0.01864000  0.32656431  0.67763698     0.43300
C649        C  0.76668215  0.03515883  0.71862417    -0.05700
C650        C  0.71463967  0.00025331  0.71990350    -0.33100
C651        C  0.69798952  0.46178282  0.75040552     0.36100
C652        C  0.72812747  0.46552069  0.78507142    -0.06100
C653        C  0.77873614  0.50425958  0.78612510    -0.33000
C654        C  0.79816088  0.03343985  0.75006958     0.36000
H655        H  0.68947867  0.00057173  0.69617889     0.16400
O656        O  0.64872742  0.42401623  0.74744134    -0.61300
H657        H  0.80260328  0.50838744  0.81257743     0.16400
O658        O  0.84888866  0.06736797  0.75107866    -0.60600
H659        H  0.86506274  0.05042094  0.73692099     0.43400
H660        H  0.62843202  0.43909967  0.75704067     0.43300
C661        C  0.76344146  0.03863136  0.53350119    -0.05700
C662        C  0.78705761  0.00977725  0.52751026    -0.33100
C663        C  0.76907252  0.46948874  0.99942038     0.36100
C664        C  0.73285722  0.46538004  0.96989168    -0.06100
C665        C  0.71311010  0.49805327  0.97301388    -0.33000
C666        C  0.72442816  0.03194054  0.50594603     0.36000
H667        H  0.81729862  0.01416442  0.54797397     0.16400
O668        O  0.78925202  0.43832660  0.99815573    -0.60500
H669        H  0.68541762  0.49600383  0.95072288     0.16400
O670        O  0.70045115  0.05943188  0.51004458    -0.60600
H671        H  0.67107719  0.03895700  0.52813103     0.43400
H672        H  0.82243553  0.45818835  0.98447424     0.43300
C673        C  0.73041916  0.26589935  0.96748599    -0.05700
C674        C  0.71009822  0.25907340  0.00734589    -0.33100
C675        C  0.72947080  0.24334886  0.03985988     0.36100
C676        C  0.76850339  0.23528450  0.53442265    -0.06100
C677        C  0.80006492  0.26064744  0.50086427    -0.33000
C678        C  0.78208391  0.27540637  0.46674098     0.36000
H679        H  0.67982023  0.26690201  0.01344946     0.16400
O680        O  0.71083178  0.23953498  0.07909954    -0.60500
H681        H  0.83888487  0.26873327  0.50075405     0.16400
O682        O  0.81407475  0.29897366  0.43428790    -0.60600
H683        H  0.83317684  0.33500517  0.44215158     0.43400
H684        H  0.67794992  0.20778407  0.07918845     0.43300
C685        C  0.76939742  0.23303272  0.72156329    -0.05700
C686        C  0.78651240  0.28483152  0.72364727    -0.33100
C687        C  0.77166114  0.30505392  0.75579209     0.36100
C688        C  0.73848886  0.27331038  0.78659365    -0.06100
C689        C  0.72288588  0.22181626  0.78535559    -0.33000
C690        C  0.73800276  0.20164356  0.75339330     0.36000
H691        H  0.81119342  0.30997980  0.69997489     0.16400
O692        O  0.78881391  0.35570835  0.75596483    -0.60500
H693        H  0.69839694  0.19668380  0.80913166     0.16400
O694        O  0.72234083  0.15128830  0.75407223    -0.60600
H695        H  0.68808637  0.13461115  0.74153681     0.43400
H696        H  0.82090051  0.37071767  0.77196236     0.43300
O697        O  0.66326291  0.90172598  0.32095051    -0.85600
O698        O  0.57453097  0.81792903  0.34038011    -0.82600
C699        C  0.57236662  0.78430653  0.31649563     0.97900
O700        O  0.60043151  0.76555810  0.32217953    -0.82700
O701        O  0.68639018  0.76336361  0.34338283    -0.85300
C702        C  0.71817981  0.79376309  0.31772897     1.02400
O703        O  0.73592060  0.84036000  0.32223757    -0.78100
O704        O  0.74025991  0.92900284  0.34332084    -0.78300
C705        C  0.71011735  0.93016717  0.31683635     1.02300
O706        O  0.68314142  0.92793758  0.40783915    -0.85600
O707        O  0.59872979  0.83850809  0.42733410    -0.82700
C708        C  0.57109802  0.79176626  0.43227150     0.97900
O709        O  0.57433789  0.76151759  0.40763348    -0.82700
O710        O  0.66481660  0.76844261  0.42944592    -0.85300
C711        C  0.71176859  0.78653366  0.43374904     1.02400
O712        O  0.74166641  0.81905378  0.40838357    -0.78100
O713        O  0.73483921  0.90235402  0.42919313    -0.78300
C714        C  0.71613094  0.93062368  0.43340349     1.02300
Cr715      Cr  0.63244002  0.86909116  0.37425267     1.93700
Cr716      Cr  0.63401528  0.76981324  0.37567973     1.93200
Cr717      Cr  0.73313637  0.87011487  0.37576947     1.39100
O718        O  0.66639107  0.83628957  0.37522442    -1.23300
O719        O  0.81702555  0.57894218  0.09258256    -0.85600
O720        O  0.89991087  0.66863029  0.07118443    -0.82600
C721        C  0.92799521  0.71536919  0.06673425     0.97900
O722        O  0.92676251  0.74523277  0.09294266    -0.82700
O723        O  0.83636510  0.73796642  0.07235040    -0.85300
C724        C  0.78942739  0.71986622  0.06863749     1.02400
O725        O  0.75960496  0.68841265  0.09467507    -0.78100
O726        O  0.76460137  0.60428275  0.07299341    -0.78300
C727        C  0.78312581  0.57597354  0.06802464     1.02300
O728        O  0.84032619  0.60436715  0.17864372    -0.85600
O729        O  0.92803736  0.68898638  0.15754154    -0.82700
C730        C  0.93055761  0.72172227  0.18265257     0.97900
O731        O  0.90234779  0.74062744  0.17859503    -0.82700
O732        O  0.81621191  0.74414561  0.15868578    -0.85300
C733        C  0.78433647  0.71391510  0.18436924     1.02400
O734        O  0.76719782  0.66734718  0.18042102    -0.78100
O735        O  0.76245739  0.57849730  0.15899696    -0.78300
C736        C  0.79357420  0.57576491  0.18355020     1.02300
Cr737      Cr  0.86892324  0.63776219  0.12500388     1.93700
Cr738      Cr  0.86785653  0.73705142  0.12571190     1.93200
Cr739      Cr  0.76843101  0.63712203  0.12675266     1.39100
O740        O  0.83510698  0.67060064  0.12611545    -1.23300
C741        C  0.53393769  0.77162690  0.46651712    -0.05700
C742        C  0.99784418  0.71895139  0.46707512    -0.33100
C743        C  0.96268027  0.69853579  0.49913643     0.36100
C744        C  0.96367367  0.73582708  0.03161568    -0.06100
C745        C  0.50523371  0.77410220  0.03488132    -0.33000
C746        C  0.54059389  0.79401923  0.00301834     0.36000
H747        H  0.99416883  0.69515826  0.44100675     0.16400
O748        O  0.92493917  0.64941644  0.49621478    -0.60500
H749        H  0.50920013  0.79804413  0.06092218     0.16400
O750        O  0.57921213  0.84270095  0.00625275    -0.60600
H751        H  0.60743635  0.84046407  0.01954684     0.43400
H752        H  0.89659925  0.65055160  0.48204125     0.43300
C753        C  0.53584224  0.76632105  0.28212019    -0.05700
C754        C  0.03644223  0.80315426  0.25627431    -0.33100
C755        C  0.00236401  0.78888610  0.22308577     0.36100
C756        C  0.96731556  0.73784492  0.21668985    -0.06100
C757        C  0.46597702  0.69870203  0.24474790    -0.33000
C758        C  0.50031067  0.71500972  0.27787341     0.36000
H759        H  0.06339910  0.84255827  0.26102079     0.16400
O760        O  0.00430588  0.82483261  0.19656610    -0.60500
H761        H  0.43848026  0.65916998  0.24186813     0.16400
O762        O  0.49803741  0.68081413  0.30651595    -0.60600
H763        H  0.47553351  0.68066291  0.32863070     0.43400
H764        H  0.02806722  0.82779775  0.17444182     0.43300
C765        C  0.77412950  0.53770525  0.21728388    -0.05700
C766        C  0.72222644  0.50256480  0.21847747    -0.33100
C767        C  0.70050583  0.96175931  0.24668950     0.36100
C768        C  0.73044858  0.96583084  0.28159182    -0.06100
C769        C  0.78123323  0.00424466  0.28242761    -0.33000
C770        C  0.80581112  0.53574512  0.24846993     0.36000
H771        H  0.69694662  0.50271998  0.19479407     0.16400
O772        O  0.65133405  0.92387451  0.24362037    -0.61300
H773        H  0.80511830  0.00836343  0.30886024     0.16400
O774        O  0.85660899  0.56940986  0.24908909    -0.60600
H775        H  0.87244502  0.55215170  0.23484814     0.43400
H776        H  0.63086301  0.93898691  0.25265715     0.43300
C777        C  0.76490295  0.53807742  0.03415374    -0.05700
C778        C  0.78452250  0.50530431  0.03108465    -0.33100
C779        C  0.77255617  0.97502113  0.49512454     0.36100
C780        C  0.73323335  0.96791833  0.46776094    -0.06100
C781        C  0.70978468  0.99701180  0.47353647    -0.33000
C782        C  0.72864666  0.53396140  0.00467575     0.36000
H783        H  0.81227100  0.50735229  0.05331767     0.16400
O784        O  0.79701727  0.94800711  0.49092267    -0.60500
H785        H  0.67961046  0.99258306  0.45297420     0.16400
O786        O  0.70882985  0.56543921  0.00582568    -0.60600
H787        H  0.67511744  0.54545066  0.01863195     0.43400
H788        H  0.82595836  0.96848526  0.47241085     0.43300
C789        C  0.73181672  0.76839380  0.46767814    -0.05700
C790        C  0.69829568  0.72697527  0.49164985    -0.33100
C791        C  0.71591733  0.70845226  0.52347380     0.36100
C792        C  0.76923472  0.73573237  0.03389647    -0.06100
C793        C  0.79038259  0.74136189  0.99443284    -0.33000
C794        C  0.77140219  0.75556099  0.96059142     0.36000
H795        H  0.65805659  0.70837930  0.48556097     0.16400
O796        O  0.68150591  0.66768209  0.54567278    -0.60500
H797        H  0.82114055  0.73387290  0.98969794     0.16400
O798        O  0.79111466  0.75838477  0.92194250    -0.60600
H799        H  0.82322909  0.79085922  0.92149780     0.43400
H800        H  0.67783233  0.63798836  0.53041746     0.43300
C801        C  0.76647813  0.73367767  0.21832624    -0.05700
C802        C  0.78061550  0.78486132  0.21874728    -0.33100
C803        C  0.76527736  0.80505694  0.25062002     0.36100
C804        C  0.73520630  0.77401872  0.28317564    -0.06100
C805        C  0.72063450  0.72275705  0.28248645    -0.33000
C806        C  0.73568113  0.70251024  0.25050969     0.36000
H807        H  0.80362228  0.80957887  0.19414184     0.16400
O808        O  0.77885772  0.85487885  0.24888287    -0.60500
H809        H  0.69747797  0.69795848  0.30699065     0.16400
O810        O  0.72089432  0.65237762  0.25172887    -0.60600
H811        H  0.68699082  0.63511102  0.23854098     0.43400
H812        H  0.81314829  0.87311967  0.26130808     0.43300
O813        O  0.65963974  0.89566711  0.82135485    -0.85600
O814        O  0.57192844  0.81104897  0.84245886    -0.82600
C815        C  0.56940628  0.77831104  0.81734915     0.97900
O816        O  0.59761559  0.75940529  0.82140718    -0.82700
O817        O  0.68375232  0.75588763  0.84131508    -0.85300
C818        C  0.71562812  0.78611740  0.81563135     1.02400
O819        O  0.73276664  0.83268546  0.81957847    -0.78100
O820        O  0.73750858  0.92153672  0.84100116    -0.78300
C821        C  0.70639168  0.92426905  0.81644797     1.02300
O822        O  0.68294215  0.92109389  0.90741608    -0.85600
O823        O  0.60005582  0.83140750  0.92881551    -0.82700
C824        C  0.57197070  0.78466885  0.93326655     0.97900
O825        O  0.57320419  0.75480399  0.90705990    -0.82700
O826        O  0.66360226  0.76207051  0.92765094    -0.85300
C827        C  0.71054004  0.78017027  0.93136286     1.02400
O828        O  0.74036167  0.81162255  0.90532422    -0.78100
O829        O  0.73536603  0.89575293  0.92700523    -0.78300
C830        C  0.71684124  0.92406178  0.93197444     1.02300
Cr831      Cr  0.63104340  0.86227360  0.87499549     1.93700
Cr832      Cr  0.63210900  0.76298358  0.87428976     1.93200
Cr833      Cr  0.73153502  0.86291245  0.87324625     1.39100
O834        O  0.66485898  0.82943437  0.87388445    -1.23300
O835        O  0.81682186  0.57209316  0.59216305    -0.85600
O836        O  0.90123145  0.66152258  0.57266581    -0.82600
C837        C  0.92886213  0.70826440  0.56772767     0.97900
O838        O  0.92562210  0.73851328  0.59236527    -0.82700
O839        O  0.83514284  0.73158542  0.57055244    -0.85300
C840        C  0.78819081  0.71349360  0.56624926     1.02400
O841        O  0.75829347  0.68097443  0.59161554    -0.78100
O842        O  0.76512376  0.59767572  0.57080757    -0.78300
C843        C  0.78383270  0.56940654  0.56659810     1.02300
O844        O  0.83670120  0.59830839  0.67905093    -0.85600
O845        O  0.92543220  0.68210561  0.65961896    -0.82700
C846        C  0.92759623  0.71572855  0.68350270     0.97900
O847        O  0.89952992  0.73447536  0.67781889    -0.82700
O848        O  0.81356965  0.73666639  0.65661569    -0.85300
C849        C  0.78178157  0.70626715  0.68227062     1.02400
O850        O  0.76404077  0.65967027  0.67776210    -0.78100
O851        O  0.75970404  0.57102875  0.65667968    -0.78300
C852        C  0.78984687  0.56986666  0.68316506     1.02300
Cr853      Cr  0.86752291  0.63094124  0.62574801     1.93700
Cr854      Cr  0.86594499  0.73021757  0.62431885     1.93200
Cr855      Cr  0.76682545  0.62991510  0.62423052     1.39100
O856        O  0.83357063  0.66374151  0.62477543    -1.23300
C857        C  0.53629009  0.76421252  0.96838394    -0.05700
C858        C  0.99472739  0.72593873  0.96511666    -0.33100
C859        C  0.95936834  0.70602123  0.99698029     0.36100
C860        C  0.96602182  0.72840376  0.53348205    -0.06100
C861        C  0.50211249  0.78108123  0.53292225    -0.33000
C862        C  0.53727623  0.80149650  0.50086069     0.36000
H863        H  0.99076017  0.70199710  0.93907535     0.16400
O864        O  0.92074979  0.65733972  0.99374564    -0.60500
H865        H  0.50578585  0.80487581  0.55898893     0.16400
O866        O  0.57501412  0.85061744  0.50378003    -0.60600
H867        H  0.60335525  0.84948653  0.51795533     0.43400
H868        H  0.89252633  0.65957701  0.98045021     0.43300
C869        C  0.53264706  0.76218729  0.78331251    -0.05700
C870        C  0.03398527  0.80133609  0.75524977    -0.33100
C871        C  0.99965190  0.78502725  0.72212395     0.36100
C872        C  0.96412110  0.73371558  0.71787767    -0.06100
C873        C  0.46352427  0.69687654  0.74372548    -0.33000
C874        C  0.49760302  0.71114532  0.77691378     0.36000
H875        H  0.06148149  0.84086833  0.75812929     0.16400
O876        O  0.00192448  0.81922203  0.69348088    -0.60500
H877        H  0.43657085  0.65747194  0.73897694     0.16400
O878        O  0.49566584  0.67519835  0.80343041    -0.60600
H879        H  0.47191549  0.67223928  0.82556239     0.43400
H880        H  0.02442373  0.81936883  0.67136382     0.43300
C881        C  0.76951580  0.53420467  0.71841032    -0.05700
C882        C  0.71873214  0.49578890  0.71757327    -0.33100
C883        C  0.69415586  0.96428543  0.75152537     0.36100
C884        C  0.72583637  0.96232863  0.78271417    -0.06100
C885        C  0.77773858  0.99747238  0.78152330    -0.33000
C886        C  0.79945733  0.53827986  0.75331451     0.36000
H887        H  0.69484798  0.49166771  0.69113932     0.16400
O888        O  0.64335907  0.93061645  0.75090305    -0.61300
H889        H  0.80301746  0.99731972  0.80520882     0.16400
O890        O  0.84862762  0.57616750  0.75638503    -0.60600
H891        H  0.86910151  0.56105849  0.74734659     0.43400
H892        H  0.62751784  0.94787376  0.76513724     0.43300
C893        C  0.76673188  0.53211248  0.53224061    -0.05700
C894        C  0.79018652  0.50302510  0.52646164    -0.33100
C895        C  0.77131956  0.96607296  0.99532424     0.36100
C896        C  0.73506265  0.96195637  0.96584660    -0.06100
C897        C  0.71544051  0.99472711  0.96891751    -0.33000
C898        C  0.72740521  0.52500514  0.50487976     0.36000
H899        H  0.82036398  0.50745769  0.54702175     0.16400
O900        O  0.79113830  0.93459684  0.99417301    -0.60500
H901        H  0.68769101  0.99267827  0.94668518     0.16400
O902        O  0.70293775  0.55201251  0.50908563    -0.60600
H903        H  0.67399825  0.53152967  0.52759792     0.43400
H904        H  0.82485220  0.95458816  0.98136964     0.43300
C905        C  0.73073367  0.76430526  0.96610401    -0.05700
C906        C  0.70958621  0.75867628  0.00556775    -0.33100
C907        C  0.72856646  0.74447693  0.03940911     0.36100
C908        C  0.76814242  0.73163195  0.53231928    -0.06100
C909        C  0.80166349  0.77304999  0.50834715    -0.33000
C910        C  0.78404183  0.79157312  0.47652338     0.36000
H911        H  0.67882836  0.76616540  0.01030273     0.16400
O912        O  0.70885385  0.74165285  0.07805806    -0.60500
H913        H  0.84190262  0.79164593  0.51443588     0.16400
O914        O  0.81845326  0.83234354  0.45432466    -0.60600
H915        H  0.82212879  0.86203713  0.46958151     0.43400
H916        H  0.67673769  0.70918051  0.07850154     0.43300
C917        C  0.76475704  0.72601190  0.71682514    -0.05700
C918        C  0.77933761  0.77727562  0.71751876    -0.33100
C919        C  0.76429228  0.79752297  0.74949590     0.36100
C920        C  0.73348685  0.76635400  0.78167508    -0.06100
C921        C  0.71934186  0.71516838  0.78125041    -0.33000
C922        C  0.73467944  0.69497228  0.74937756     0.36000
H923        H  0.80250050  0.80207568  0.69301784     0.16400
O924        O  0.77908978  0.84765826  0.74828160    -0.60500
H925        H  0.69632920  0.69044955  0.80585290     0.16400
O926        O  0.72109146  0.64514822  0.75111133    -0.60600
H927        H  0.68680339  0.62691329  0.73868110     0.43400
H928        H  0.81299037  0.86491638  0.76147498     0.43300
loop_ 
_geom_bond_atom_site_label_1 
_geom_bond_atom_site_label_2 
_geom_bond_distance 
_geom_bond_site_symmetry_2 
_ccdc_geom_bond_type 
O1          Cr19   1.976       .  S
O1            C9   1.259       .  A
O2          Cr19   2.003       .  S
O2            C3   1.265       .  A
C3            O4   1.260       .  A
C3           C57   1.469       .  S
O4          Cr20   1.971       .  S
O5          Cr20   2.017       .  S
O5            C6   1.269       .  A
C6            O7   1.261       .  A
C6          C108   1.490       .  S
O7          Cr21   1.977       .  S
O8          Cr21   2.001       .  S
O8            C9   1.265       .  A
C9           C72   1.482       .  S
O10         Cr19   2.004       .  S
O10          C18   1.266       .  A
O11         Cr19   1.979       .  S
O11          C12   1.260       .  A
C12          O13   1.266       .  A
C12          C45   1.485       .  S
O13         Cr20   2.010       .  S
O14         Cr20   1.973       .  S
O14          C15   1.259       .  A
C15          O16   1.264       .  A
C15          C93   1.475       .  S
O16         Cr21   2.004       .  S
O17         Cr21   1.978       .  S
O17          C18   1.261       .  A
C18          C84   1.480       .  S
Cr19         O22   1.768       .  S
Cr20         O22   1.769       .  S
Cr21         O22   1.769       .  S
O23         Cr41   1.999       .  S
O23          C31   1.265       .  A
O24         Cr41   1.975       .  S
O24          C25   1.260       .  A
C25          O26   1.265       .  A
C25          C48   1.479       .  S
O26         Cr42   1.999       .  S
O27         Cr42   1.970       .  S
O27          C28   1.259       .  A
C28          O29   1.264       .  A
C28          C96   1.480       .  S
O29         Cr43   2.000       .  S
O30         Cr43   1.981       .  S
O30          C31   1.262       .  A
C31          C81   1.477       .  S
O32         Cr41   1.972       .  S
O32          C40   1.258       .  A
O33         Cr41   1.996       .  S
O33          C34   1.263       .  A
C34          O35   1.259       .  A
C34          C60   1.462       .  S
O35         Cr42   1.966       .  S
O36         Cr42   2.012       .  S
O36          C37   1.268       .  A
C37          O38   1.261       .  A
C37         C105   1.489       .  S
O38         Cr43   1.978       .  S
O39         Cr43   1.995       .  S
O39          C40   1.264       .  A
C40          C69   1.478       .  S
Cr41         O44   1.767       .  S
Cr42         O44   1.767       .  S
Cr43         O44   1.766       .  S
C45         C510   1.405   1_455  A
C45         C166   1.412       .  A
C46          C47   1.401       .  A
C46         C509   1.407       .  A
C46          H51   1.084       .  S
C47         C164   1.412       .  A
C47          O52   1.372       .  S
C48         C163   1.411   1_554  A
C48         C513   1.405       .  A
C49          C50   1.399       .  A
C49         C512   1.408   1_455  A
C49          H53   1.084       .  S
C50         C161   1.411   1_554  A
C50          O54   1.372       .  S
O52          H56   0.991       .  S
O54          H55   0.992       .  S
C57          C62   1.406       .  A
C57         C522   1.404       .  A
C58          C59   1.396       .  A
C58         C521   1.402       .  A
C58          H63   1.084       .  S
C59          C60   1.406       .  A
C59          O64   1.372       .  S
C60         C525   1.402       .  A
C61          C62   1.398   1_655  A
C61         C524   1.402       .  A
C61          H65   1.083       .  S
C62          O66   1.372       .  S
O64          H68   0.992       .  S
O66          H67   0.992   1_455  S
C69          C70   1.406       .  A
C69          C74   1.410       .  A
C70         C303   1.395   1_545  A
C70          H75   1.083       .  S
C71          C72   1.411       .  A
C71         C302   1.399       .  A
C71          O76   1.371       .  S
C72          C73   1.406       .  A
C73         C306   1.397       .  A
C73          H77   1.083       .  S
C74         C305   1.396   1_545  A
C74          O78   1.372       .  S
O76          H80   0.992       .  S
O78          H79   0.991       .  S
C81          C82   1.406       .  A
C81          C86   1.408       .  A
C82         C431   1.398   1_544  A
C82          H87   1.084       .  S
C83          C84   1.409       .  A
C83         C430   1.399       .  A
C83          O88   1.372       .  S
C84          C85   1.406       .  A
C85         C434   1.400       .  A
C85          H89   1.084       .  S
C86         C433   1.400   1_544  A
C86          O90   1.371       .  S
O88          H92   0.993       .  S
O90          H91   0.994   1_545  S
C93          C94   1.403       .  A
C93         C214   1.410       .  A
C94          C95   1.398       .  A
C94          H99   1.084       .  S
C95         C212   1.410       .  A
C95         O100   1.372       .  S
C96          C97   1.404       .  A
C96         C211   1.412       .  A
C97          C98   1.397   1_554  A
C97         H101   1.084       .  S
C98         C209   1.412       .  A
C98         O102   1.372       .  S
O100        H104   0.992       .  S
O102        H103   0.993       .  S
C105        C106   1.407       .  A
C105        C110   1.412       .  A
C106        C107   1.402       .  A
C106        H111   1.083       .  S
C107        C108   1.413       .  A
C107        O112   1.372       .  S
C108        C109   1.406       .  A
C109        C110   1.401       .  A
C109        H113   1.083       .  S
C110        O114   1.372       .  S
O112        H116   0.991       .  S
O114        H115   0.991       .  S
O117       Cr135   1.972       .  S
O117        C125   1.258       .  A
O118       Cr135   1.996       .  S
O118        C119   1.263       .  A
C119        O120   1.259       .  A
C119        C173   1.462       .  S
O120       Cr136   1.966       .  S
O121       Cr136   2.012       .  S
O121        C122   1.268       .  A
C122        O123   1.261       .  A
C122        C224   1.489       .  S
O123       Cr137   1.978       .  S
O124       Cr137   1.995       .  S
O124        C125   1.264       .  A
C125        C188   1.478       .  S
O126       Cr135   1.999       .  S
O126        C134   1.265       .  A
O127       Cr135   1.975       .  S
O127        C128   1.260       .  A
C128        O129   1.265       .  A
C128        C161   1.479       .  S
O129       Cr136   1.999       .  S
O130       Cr136   1.970       .  S
O130        C131   1.259       .  A
C131        O132   1.264       .  A
C131        C209   1.480       .  S
O132       Cr137   2.000       .  S
O133       Cr137   1.981       .  S
O133        C134   1.262       .  A
C134        C200   1.477       .  S
Cr135       O138   1.767       .  S
Cr136       O138   1.767       .  S
Cr137       O138   1.766       .  S
O139       Cr157   2.004       .  S
O139        C147   1.266       .  A
O140       Cr157   1.979       .  S
O140        C141   1.260       .  A
C141        O142   1.266       .  A
C141        C164   1.485       .  S
O142       Cr158   2.010       .  S
O143       Cr158   1.973       .  S
O143        C144   1.259       .  A
C144        O145   1.264       .  A
C144        C212   1.475       .  S
O145       Cr159   2.004       .  S
O146       Cr159   1.978       .  S
O146        C147   1.261       .  A
C147        C197   1.480       .  S
O148       Cr157   1.976       .  S
O148        C156   1.259       .  A
O149       Cr157   2.003       .  S
O149        C150   1.265       .  A
C150        O151   1.260       .  A
C150        C176   1.469       .  S
O151       Cr158   1.971       .  S
O152       Cr158   2.017       .  S
O152        C153   1.269       .  A
C153        O154   1.261       .  A
C153        C221   1.490       .  S
O154       Cr159   1.977       .  S
O155       Cr159   2.001       .  S
O155        C156   1.265       .  A
C156        C185   1.482       .  S
Cr157       O160   1.768       .  S
Cr158       O160   1.769       .  S
Cr159       O160   1.769       .  S
C161        C626   1.405   1_455  A
C162        C625   1.408       .  A
C162        C163   1.399       .  A
C162        H167   1.084       .  S
C163        O168   1.372       .  S
C164        C629   1.405       .  A
C165        C628   1.407   1_455  A
C165        C166   1.401       .  A
C165        H169   1.084       .  S
C166        O170   1.372       .  S
O168        H172   0.992       .  S
O170        H171   0.992       .  S
C173        C638   1.402       .  A
C173        C178   1.406       .  A
C174        C637   1.402       .  A
C174        C175   1.398       .  A
C174        H179   1.083       .  S
C175        C176   1.406       .  A
C175        O180   1.372       .  S
C176        C641   1.404       .  A
C177        C640   1.402       .  A
C177        C178   1.396   1_655  A
C177        H181   1.084       .  S
C178        O182   1.372       .  S
O180        H184   0.992       .  S
O182        H183   0.992   1_455  S
C185        C186   1.406   1_545  A
C185        C190   1.411       .  A
C186        C419   1.397       .  A
C186        H191   1.083       .  S
C187        C418   1.396       .  A
C187        C188   1.410       .  A
C187        O192   1.372       .  S
C188        C189   1.406       .  A
C189        C422   1.395       .  A
C189        H193   1.083       .  S
C190        C421   1.399       .  A
C190        O194   1.371       .  S
O192        H196   0.991       .  S
O194        H195   0.992       .  S
C197        C198   1.406       .  A
C197        C202   1.409       .  A
C198        C315   1.400   1_545  A
C198        H203   1.084       .  S
C199        C314   1.400   1_556  A
C199        C200   1.408       .  A
C199        O204   1.371       .  S
C200        C201   1.406       .  A
C201        C318   1.398   1_556  A
C201        H205   1.084       .  S
C202        C317   1.399   1_545  A
C202        O206   1.372       .  S
O204        H208   0.994       .  S
O206        H207   0.993       .  S
C209        C210   1.404       .  A
C210        C211   1.397   1_556  A
C210        H215   1.084       .  S
C211        O216   1.372       .  S
C212        C213   1.403       .  A
C213        C214   1.398       .  A
C213        H217   1.084       .  S
C214        O218   1.372       .  S
O216        H220   0.993       .  S
O218        H219   0.992       .  S
C221        C222   1.406       .  A
C221        C226   1.413       .  A
C222        C223   1.401       .  A
C222        H227   1.083       .  S
C223        C224   1.412       .  A
C223        O228   1.372       .  S
C224        C225   1.407       .  A
C225        C226   1.402       .  A
C225        H229   1.083       .  S
C226        O230   1.372       .  S
O228        H232   0.991       .  S
O230        H231   0.991       .  S
O233       Cr251   1.973       .  S
O233        C241   1.259       .  A
O234       Cr251   1.999       .  S
O234        C235   1.265       .  A
C235        O236   1.259       .  A
C235        C289   1.464       .  S
O236       Cr252   1.969       .  S
O237       Cr252   2.013       .  S
O237        C238   1.268       .  A
C238        O239   1.261       .  A
C238        C340   1.490       .  S
O239       Cr253   1.981       .  S
O240       Cr253   1.996       .  S
O240        C241   1.264       .  A
C241        C304   1.479       .  S
O242       Cr251   2.000       .  S
O242        C250   1.265       .  A
O243       Cr251   1.980       .  S
O243        C244   1.260       .  A
C244        O245   1.265       .  A
C244        C277   1.486       .  S
O245       Cr252   2.006       .  S
O246       Cr252   1.968       .  S
O246        C247   1.258       .  A
C247        O248   1.264       .  A
C247        C325   1.471       .  S
O248       Cr253   2.003       .  S
O249       Cr253   1.981       .  S
O249        C250   1.263       .  A
C250        C316   1.480       .  S
Cr251       O254   1.767       .  S
Cr252       O254   1.769       .  S
Cr253       O254   1.770       .  S
O255       Cr273   2.002       .  S
O255        C263   1.266       .  A
O256       Cr273   1.977       .  S
O256        C257   1.260       .  A
C257        O258   1.266       .  A
C257        C280   1.482       .  S
O258       Cr274   2.003       .  S
O259       Cr274   1.977       .  S
O259        C260   1.260       .  A
C260        O261   1.263       .  A
C260        C328   1.482       .  S
O261       Cr275   1.998       .  S
O262       Cr275   1.978       .  S
O262        C263   1.262       .  A
C263        C313   1.477       .  S
O264       Cr273   1.976       .  S
O264        C272   1.259       .  A
O265       Cr273   1.999       .  S
O265        C266   1.264       .  A
C266        O267   1.260       .  A
C266        C292   1.466       .  S
O267       Cr274   1.971       .  S
O268       Cr274   2.014       .  S
O268        C269   1.269       .  A
C269        O270   1.262       .  A
C269        C337   1.489       .  S
O270       Cr275   1.976       .  S
O271       Cr275   1.999       .  S
O271        C272   1.263       .  A
C272        C301   1.481       .  S
Cr273       O276   1.768       .  S
Cr274       O276   1.769       .  S
Cr275       O276   1.770       .  S
C277        C742   1.406   1_455  A
C277        C398   1.412       .  A
C278        C741   1.407       .  A
C278        C279   1.401       .  A
C278        H283   1.084       .  S
C279        C396   1.412       .  A
C279        O284   1.372       .  S
C280        C395   1.411   1_554  A
C280        C745   1.406       .  A
C281        C744   1.408   1_455  A
C281        C282   1.400       .  A
C281        H285   1.084       .  S
C282        C393   1.411   1_554  A
C282        O286   1.372       .  S
O284        H288   0.991       .  S
O286        H287   0.992       .  S
C289        C754   1.402       .  A
C289        C294   1.406       .  A
C290        C753   1.402       .  A
C290        C291   1.398       .  A
C290        H295   1.082       .  S
C291        C292   1.406       .  A
C291        O296   1.372       .  S
C292        C757   1.402       .  A
C293        C756   1.402       .  A
C293        C294   1.397   1_655  A
C293        H297   1.083       .  S
C294        O298   1.372       .  S
O296        H300   0.993       .  S
O298        H299   0.992   1_455  S
C301        C302   1.406       .  A
C301        C306   1.410       .  A
C302        H307   1.083       .  S
C303        C304   1.410       .  A
C303        O308   1.371       .  S
C304        C305   1.406       .  A
C305        H309   1.083       .  S
C306        O310   1.371       .  S
O308        H312   0.992       .  S
O310        H311   0.991       .  S
C313        C314   1.406       .  A
C313        C318   1.408       .  A
C314        H319   1.084       .  S
C315        C316   1.409       .  A
C315        O320   1.371       .  S
C316        C317   1.406       .  A
C317        H321   1.084       .  S
C318        O322   1.372       .  S
O320        H324   0.993       .  S
O322        H323   0.993       .  S
C325        C326   1.403       .  A
C325        C446   1.409       .  A
C326        C327   1.396       .  A
C326        H331   1.084       .  S
C327        C444   1.409       .  A
C327        O332   1.372       .  S
C328        C443   1.413       .  A
C328        C329   1.404       .  A
C329        C330   1.397   1_554  A
C329        H333   1.083       .  S
C330        C441   1.413       .  A
C330        O334   1.372       .  S
O332        H336   0.992       .  S
O334        H335   0.993       .  S
C337        C338   1.407       .  A
C337        C342   1.412       .  A
C338        C339   1.402       .  A
C338        H343   1.083       .  S
C339        C340   1.413       .  A
C339        O344   1.372       .  S
C340        C341   1.407       .  A
C341        C342   1.401       .  A
C341        H345   1.083       .  S
C342        O346   1.372       .  S
O344        H348   0.991       .  S
O346        H347   0.992       .  S
O349       Cr367   1.976       .  S
O349        C357   1.259       .  A
O350       Cr367   1.999       .  S
O350        C351   1.264       .  A
C351        O352   1.260       .  A
C351        C405   1.466       .  S
O352       Cr368   1.971       .  S
O353       Cr368   2.014       .  S
O353        C354   1.269       .  A
C354        O355   1.262       .  A
C354        C456   1.489       .  S
O355       Cr369   1.976       .  S
O356       Cr369   1.999       .  S
O356        C357   1.263       .  A
C357        C420   1.481       .  S
O358       Cr367   2.002       .  S
O358        C366   1.266       .  A
O359       Cr367   1.977       .  S
O359        C360   1.260       .  A
C360        O361   1.266       .  A
C360        C393   1.482       .  S
O361       Cr368   2.003       .  S
O362       Cr368   1.977       .  S
O362        C363   1.260       .  A
C363        O364   1.263       .  A
C363        C441   1.482       .  S
O364       Cr369   1.998       .  S
O365       Cr369   1.978       .  S
O365        C366   1.262       .  A
C366        C432   1.477       .  S
Cr367       O370   1.768       .  S
Cr368       O370   1.769       .  S
Cr369       O370   1.770       .  S
O371       Cr389   2.000       .  S
O371        C379   1.265       .  A
O372       Cr389   1.980       .  S
O372        C373   1.260       .  A
C373        O374   1.265       .  A
C373        C396   1.486       .  S
O374       Cr390   2.006       .  S
O375       Cr390   1.968       .  S
O375        C376   1.258       .  A
C376        O377   1.264       .  A
C376        C444   1.471       .  S
O377       Cr391   2.003       .  S
O378       Cr391   1.981       .  S
O378        C379   1.263       .  A
C379        C429   1.480       .  S
O380       Cr389   1.973       .  S
O380        C388   1.259       .  A
O381       Cr389   1.999       .  S
O381        C382   1.265       .  A
C382        O383   1.259       .  A
C382        C408   1.464       .  S
O383       Cr390   1.969       .  S
O384       Cr390   2.013       .  S
O384        C385   1.268       .  A
C385        O386   1.261       .  A
C385        C453   1.490       .  S
O386       Cr391   1.981       .  S
O387       Cr391   1.996       .  S
O387        C388   1.264       .  A
C388        C417   1.479       .  S
Cr389       O392   1.767       .  S
Cr390       O392   1.769       .  S
Cr391       O392   1.770       .  S
C393        C858   1.406   1_455  A
C394        C857   1.408       .  A
C394        C395   1.400       .  A
C394        H399   1.084       .  S
C395        O400   1.372       .  S
C396        C861   1.406       .  A
C397        C860   1.407   1_455  A
C397        C398   1.401       .  A
C397        H401   1.084       .  S
C398        O402   1.372       .  S
O400        H404   0.992       .  S
O402        H403   0.991       .  S
C405        C870   1.402       .  A
C405        C410   1.406   1_455  A
C406        C869   1.402       .  A
C406        C407   1.397       .  A
C406        H411   1.083       .  S
C407        C408   1.406       .  A
C407        O412   1.372       .  S
C408        C873   1.402       .  A
C409        C872   1.402       .  A
C409        C410   1.398       .  A
C409        H413   1.082       .  S
C410        O414   1.372       .  S
O412        H416   0.992       .  S
O414        H415   0.993       .  S
C417        C418   1.406       .  A
C417        C422   1.410       .  A
C418        H423   1.083       .  S
C419        C420   1.410       .  A
C419        O424   1.371       .  S
C420        C421   1.406   1_565  A
C421        H425   1.083       .  S
C422        O426   1.371       .  S
O424        H428   0.991       .  S
O426        H427   0.992       .  S
C429        C430   1.406       .  A
C429        C434   1.409       .  A
C430        H435   1.084       .  S
C431        C432   1.408       .  A
C431        O436   1.372       .  S
C432        C433   1.406       .  A
C433        H437   1.084       .  S
C434        O438   1.371       .  S
O436        H440   0.993       .  S
O438        H439   0.993       .  S
C441        C442   1.404       .  A
C442        C443   1.397   1_556  A
C442        H447   1.083       .  S
C443        O448   1.372       .  S
C444        C445   1.403       .  A
C445        C446   1.396       .  A
C445        H449   1.084       .  S
C446        O450   1.372       .  S
O448        H452   0.993       .  S
O450        H451   0.992       .  S
C453        C454   1.407       .  A
C453        C458   1.413       .  A
C454        C455   1.401       .  A
C454        H459   1.083       .  S
C455        C456   1.412       .  A
C455        O460   1.372       .  S
C456        C457   1.407       .  A
C457        C458   1.402       .  A
C457        H461   1.083       .  S
C458        O462   1.372       .  S
O460        H464   0.992       .  S
O462        H463   0.991       .  S
O465       Cr483   1.980       .  S
O465        C473   1.260       .  A
O466       Cr483   1.998       .  S
O466        C467   1.264       .  A
C467        O468   1.259       .  A
C467        C521   1.463       .  S
O468       Cr484   1.965       .  S
O469       Cr484   2.008       .  S
O469        C470   1.267       .  A
C470        O471   1.261       .  A
C470        C572   1.485       .  S
O471       Cr485   1.976       .  S
O472       Cr485   2.004       .  S
O472        C473   1.264       .  A
C473        C536   1.488       .  S
O474       Cr483   2.003       .  S
O474        C482   1.267       .  A
O475       Cr483   1.982       .  S
O475        C476   1.261       .  A
C476        O477   1.265       .  A
C476        C509   1.485       .  S
O477       Cr484   2.005       .  S
O478       Cr484   1.972       .  S
O478        C479   1.259       .  A
C479        O480   1.263       .  A
C479        C557   1.479       .  S
O480       Cr485   2.001       .  S
O481       Cr485   1.981       .  S
O481        C482   1.262       .  A
C482        C548   1.487       .  S
Cr483       O486   1.764       .  S
Cr484       O486   1.771       .  S
Cr485       O486   1.769       .  S
O487       Cr505   2.006       .  S
O487        C495   1.266       .  A
O488       Cr505   1.976       .  S
O488        C489   1.261       .  A
C489        O490   1.263       .  A
C489        C512   1.479       .  S
O490       Cr506   1.996       .  S
O491       Cr506   1.974       .  S
O491        C492   1.259       .  A
C492        O493   1.263       .  A
C492        C560   1.466       .  S
O493       Cr507   2.002       .  S
O494       Cr507   1.979       .  S
O494        C495   1.261       .  A
C495        C545   1.487       .  S
O496       Cr505   1.976       .  S
O496        C504   1.260       .  A
O497       Cr505   2.000       .  S
O497        C498   1.265       .  A
C498        O499   1.261       .  A
C498        C524   1.468       .  S
O499       Cr506   1.974       .  S
O500       Cr506   2.005       .  S
O500        C501   1.266       .  A
C501        O502   1.261       .  A
C501        C569   1.483       .  S
O502       Cr507   1.974       .  S
O503       Cr507   2.004       .  S
O503        C504   1.265       .  A
C504        C533   1.483       .  S
Cr505       O508   1.765       .  S
Cr506       O508   1.769       .  S
Cr507       O508   1.767       .  S
C509        C630   1.411       .  A
C510        C511   1.400       .  A
C510        H515   1.083       .  S
C511        C628   1.411       .  A
C511        O516   1.372       .  S
C512        C627   1.409   1_554  A
C513        C514   1.394       .  A
C513        H517   1.083       .  S
C514        C625   1.409   1_554  A
C514        O518   1.372       .  S
O516        H520   0.991       .  S
O518        H519   0.992       .  S
C521        C526   1.406       .  A
C522        C523   1.399   1_455  A
C522        H527   1.083       .  S
C523        C524   1.406       .  A
C523        O528   1.372       .  S
C525        C526   1.396       .  A
C525        H529   1.084       .  S
C526        O530   1.372       .  S
O528        H532   0.993   1_655  S
O530        H531   0.993       .  S
C533        C534   1.406   1_545  A
C533        C538   1.410       .  A
C534        C767   1.399       .  A
C534        H539   1.083       .  S
C535        C766   1.398       .  A
C535        C536   1.410       .  A
C535        O540   1.371       .  S
C536        C537   1.408       .  A
C537        C770   1.402       .  A
C537        H541   1.083       .  S
C538        C769   1.399       .  A
C538        O542   1.371       .  S
O540        H544   0.992       .  S
O542        H543   0.992       .  S
C545        C546   1.408       .  A
C545        C550   1.411       .  A
C546        C895   1.401   1_544  A
C546        H551   1.083       .  S
C547        C894   1.402       .  A
C547        C548   1.411       .  A
C547        O552   1.372       .  S
C548        C549   1.407       .  A
C549        C898   1.398       .  A
C549        H553   1.083       .  S
C550        C897   1.399   1_544  A
C550        O554   1.372       .  S
O552        H556   0.993       .  S
O554        H555   0.992       .  S
C557        C558   1.404       .  A
C557        C678   1.412       .  A
C558        C559   1.397       .  A
C558        H563   1.084       .  S
C559        C676   1.412       .  A
C559        O564   1.372       .  S
C560        C675   1.408       .  A
C560        C561   1.401   1_554  A
C561        C562   1.397       .  A
C561        H565   1.084       .  S
C562        C673   1.408       .  A
C562        O566   1.372       .  S
O564        H568   0.993       .  S
O566        H567   0.993       .  S
C569        C570   1.406       .  A
C569        C574   1.411       .  A
C570        C571   1.398       .  A
C570        H575   1.083       .  S
C571        C572   1.411       .  A
C571        O576   1.372       .  S
C572        C573   1.407       .  A
C573        C574   1.399       .  A
C573        H577   1.083       .  S
C574        O578   1.372       .  S
O576        H580   0.991       .  S
O578        H579   0.992       .  S
O581       Cr599   1.976       .  S
O581        C589   1.260       .  A
O582       Cr599   2.000       .  S
O582        C583   1.265       .  A
C583        O584   1.261       .  A
C583        C637   1.468       .  S
O584       Cr600   1.973       .  S
O585       Cr600   2.005       .  S
O585        C586   1.266       .  A
C586        O587   1.261       .  A
C586        C688   1.483       .  S
O587       Cr601   1.974       .  S
O588       Cr601   2.004       .  S
O588        C589   1.265       .  A
C589        C652   1.483       .  S
O590       Cr599   2.006       .  S
O590        C598   1.266       .  A
O591       Cr599   1.976       .  S
O591        C592   1.261       .  A
C592        O593   1.263       .  A
C592        C625   1.479       .  S
O593       Cr600   1.996       .  S
O594       Cr600   1.974       .  S
O594        C595   1.259       .  A
C595        O596   1.263       .  A
C595        C673   1.466       .  S
O596       Cr601   2.002       .  S
O597       Cr601   1.979       .  S
O597        C598   1.261       .  A
C598        C664   1.487       .  S
Cr599       O602   1.765       .  S
Cr600       O602   1.769       .  S
Cr601       O602   1.767       .  S
O603       Cr621   2.003       .  S
O603        C611   1.267       .  A
O604       Cr621   1.982       .  S
O604        C605   1.261       .  A
C605        O606   1.265       .  A
C605        C628   1.485       .  S
O606       Cr622   2.005       .  S
O607       Cr622   1.972       .  S
O607        C608   1.259       .  A
C608        O609   1.263       .  A
C608        C676   1.479       .  S
O609       Cr623   2.001       .  S
O610       Cr623   1.981       .  S
O610        C611   1.262       .  A
C611        C661   1.487       .  S
O612       Cr621   1.980       .  S
O612        C620   1.260       .  A
O613       Cr621   1.998       .  S
O613        C614   1.264       .  A
C614        O615   1.259       .  A
C614        C640   1.463       .  S
O615       Cr622   1.965       .  S
O616       Cr622   2.008       .  S
O616        C617   1.267       .  A
C617        O618   1.261       .  A
C617        C685   1.485       .  S
O618       Cr623   1.976       .  S
O619       Cr623   2.004       .  S
O619        C620   1.264       .  A
C620        C649   1.488       .  S
Cr621       O624   1.764       .  S
Cr622       O624   1.771       .  S
Cr623       O624   1.769       .  S
C626        C627   1.394       .  A
C626        H631   1.083       .  S
C627        O632   1.372       .  S
C629        C630   1.400       .  A
C629        H633   1.083       .  S
C630        O634   1.372       .  S
O632        H636   0.992       .  S
O634        H635   0.991       .  S
C637        C642   1.406       .  A
C638        C639   1.396   1_455  A
C638        H643   1.084       .  S
C639        C640   1.406       .  A
C639        O644   1.372       .  S
C641        C642   1.399       .  A
C641        H645   1.083       .  S
C642        O646   1.372       .  S
O644        H648   0.993   1_655  S
O646        H647   0.993       .  S
C649        C650   1.408       .  A
C649        C654   1.410       .  A
C650        C883   1.402   1_545  A
C650        H655   1.083       .  S
C651        C882   1.399       .  A
C651        C652   1.410       .  A
C651        O656   1.371       .  S
C652        C653   1.406       .  A
C653        C886   1.399       .  A
C653        H657   1.083       .  S
C654        C885   1.398   1_545  A
C654        O658   1.371       .  S
O656        H660   0.992       .  S
O658        H659   0.992       .  S
C661        C662   1.407       .  A
C661        C666   1.411       .  A
C662        C779   1.398   1_545  A
C662        H667   1.083       .  S
C663        C778   1.399   1_556  A
C663        C664   1.411       .  A
C663        O668   1.372       .  S
C664        C665   1.408       .  A
C665        C782   1.401   1_556  A
C665        H669   1.083       .  S
C666        C781   1.402   1_545  A
C666        O670   1.372       .  S
O668        H672   0.992       .  S
O670        H671   0.993       .  S
C673        C674   1.401   1_556  A
C674        C675   1.397       .  A
C674        H679   1.084       .  S
C675        O680   1.372       .  S
C676        C677   1.404       .  A
C677        C678   1.397       .  A
C677        H681   1.084       .  S
C678        O682   1.372       .  S
O680        H684   0.993       .  S
O682        H683   0.993       .  S
C685        C686   1.407       .  A
C685        C690   1.411       .  A
C686        C687   1.399       .  A
C686        H691   1.083       .  S
C687        C688   1.411       .  A
C687        O692   1.372       .  S
C688        C689   1.406       .  A
C689        C690   1.398       .  A
C689        H693   1.083       .  S
C690        O694   1.372       .  S
O692        H696   0.992       .  S
O694        H695   0.991       .  S
O697       Cr715   1.980       .  S
O697        C705   1.260       .  A
O698       Cr715   2.002       .  S
O698        C699   1.265       .  A
C699        O700   1.259       .  A
C699        C753   1.466       .  S
O700       Cr716   1.971       .  S
O701       Cr716   2.006       .  S
O701        C702   1.267       .  A
C702        O703   1.261       .  A
C702        C804   1.485       .  S
O703       Cr717   1.978       .  S
O704       Cr717   2.002       .  S
O704        C705   1.264       .  A
C705        C768   1.484       .  S
O706       Cr715   2.010       .  S
O706        C714   1.267       .  A
O707       Cr715   1.982       .  S
O707        C708   1.262       .  A
C708        O709   1.265       .  A
C708        C741   1.486       .  S
O709       Cr716   2.003       .  S
O710       Cr716   1.976       .  S
O710        C711   1.261       .  A
C711        O712   1.265       .  A
C711        C789   1.485       .  S
O712       Cr717   2.005       .  S
O713       Cr717   1.977       .  S
O713        C714   1.262       .  A
C714        C780   1.488       .  S
Cr715       O718   1.768       .  S
Cr716       O718   1.771       .  S
Cr717       O718   1.769       .  S
O719       Cr737   2.002       .  S
O719        C727   1.265       .  A
O720       Cr737   1.982       .  S
O720        C721   1.261       .  A
C721        O722   1.263       .  A
C721        C744   1.483       .  S
O722       Cr738   1.999       .  S
O723       Cr738   1.972       .  S
O723        C724   1.258       .  A
C724        O725   1.265       .  A
C724        C792   1.468       .  S
O725       Cr739   2.007       .  S
O726       Cr739   1.982       .  S
O726        C727   1.261       .  A
C727        C777   1.487       .  S
O728       Cr737   1.982       .  S
O728        C736   1.261       .  A
O729       Cr737   1.998       .  S
O729        C730   1.264       .  A
C730        O731   1.261       .  A
C730        C756   1.463       .  S
O731       Cr738   1.972       .  S
O732       Cr738   2.008       .  S
O732        C733   1.267       .  A
C733        O734   1.261       .  A
C733        C801   1.486       .  S
O734       Cr739   1.976       .  S
O735       Cr739   2.004       .  S
O735        C736   1.266       .  A
C736        C765   1.487       .  S
Cr737       O740   1.766       .  S
Cr738       O740   1.770       .  S
Cr739       O740   1.767       .  S
C741        C862   1.410       .  A
C742        C743   1.400       .  A
C742        H747   1.083       .  S
C743        C860   1.410       .  A
C743        O748   1.372       .  S
C744        C859   1.409   1_554  A
C745        C746   1.397       .  A
C745        H749   1.083       .  S
C746        C857   1.409   1_554  A
C746        O750   1.372       .  S
O748        H752   0.991       .  S
O750        H751   0.992       .  S
C753        C758   1.406       .  A
C754        C755   1.397       .  A
C754        H759   1.083       .  S
C755        C756   1.405   1_455  A
C755        O760   1.372       .  S
C757        C758   1.398       .  A
C757        H761   1.083       .  S
C758        O762   1.372       .  S
O760        H764   0.993       .  S
O762        H763   0.993       .  S
C765        C766   1.406       .  A
C765        C770   1.412       .  A
C766        H771   1.083       .  S
C767        C768   1.410       .  A
C767        O772   1.371       .  S
C768        C769   1.406   1_565  A
C769        H773   1.083       .  S
C770        O774   1.371       .  S
O772        H776   0.991       .  S
O774        H775   0.992       .  S
C777        C778   1.407       .  A
C777        C782   1.411       .  A
C778        H783   1.083       .  S
C779        C780   1.411       .  A
C779        O784   1.372       .  S
C780        C781   1.408       .  A
C781        H785   1.083       .  S
C782        O786   1.372       .  S
O784        H788   0.993       .  S
O786        H787   0.992       .  S
C789        C790   1.405       .  A
C789        C910   1.413       .  A
C790        C791   1.399       .  A
C790        H795   1.083       .  S
C791        C908   1.413       .  A
C791        O796   1.372       .  S
C792        C907   1.407       .  A
C792        C793   1.403   1_554  A
C793        C794   1.398       .  A
C793        H797   1.084       .  S
C794        C905   1.407       .  A
C794        O798   1.372       .  S
O796        H800   0.993       .  S
O798        H799   0.992       .  S
C801        C802   1.407       .  A
C801        C806   1.411       .  A
C802        C803   1.400       .  A
C802        H807   1.083       .  S
C803        C804   1.411       .  A
C803        O808   1.372       .  S
C804        C805   1.406       .  A
C805        C806   1.399       .  A
C805        H809   1.083       .  S
C806        O810   1.372       .  S
O808        H812   0.991       .  S
O810        H811   0.991       .  S
O813       Cr831   1.982       .  S
O813        C821   1.261       .  A
O814       Cr831   1.998       .  S
O814        C815   1.264       .  A
C815        O816   1.261       .  A
C815        C869   1.463       .  S
O816       Cr832   1.972       .  S
O817       Cr832   2.008       .  S
O817        C818   1.267       .  A
C818        O819   1.261       .  A
C818        C920   1.486       .  S
O819       Cr833   1.976       .  S
O820       Cr833   2.004       .  S
O820        C821   1.266       .  A
C821        C884   1.487       .  S
O822       Cr831   2.002       .  S
O822        C830   1.265       .  A
O823       Cr831   1.982       .  S
O823        C824   1.261       .  A
C824        O825   1.263       .  A
C824        C857   1.483       .  S
O825       Cr832   1.999       .  S
O826       Cr832   1.972       .  S
O826        C827   1.258       .  A
C827        O828   1.265       .  A
C827        C905   1.468       .  S
O828       Cr833   2.007       .  S
O829       Cr833   1.982       .  S
O829        C830   1.261       .  A
C830        C896   1.487       .  S
Cr831       O834   1.766       .  S
Cr832       O834   1.770       .  S
Cr833       O834   1.767       .  S
O835       Cr853   2.010       .  S
O835        C843   1.267       .  A
O836       Cr853   1.982       .  S
O836        C837   1.262       .  A
C837        O838   1.265       .  A
C837        C860   1.486       .  S
O838       Cr854   2.003       .  S
O839       Cr854   1.976       .  S
O839        C840   1.261       .  A
C840        O841   1.265       .  A
C840        C908   1.485       .  S
O841       Cr855   2.005       .  S
O842       Cr855   1.977       .  S
O842        C843   1.262       .  A
C843        C893   1.488       .  S
O844       Cr853   1.980       .  S
O844        C852   1.260       .  A
O845       Cr853   2.002       .  S
O845        C846   1.265       .  A
C846        O847   1.259       .  A
C846        C872   1.466       .  S
O847       Cr854   1.971       .  S
O848       Cr854   2.006       .  S
O848        C849   1.267       .  A
C849        O850   1.261       .  A
C849        C917   1.485       .  S
O850       Cr855   1.978       .  S
O851       Cr855   2.002       .  S
O851        C852   1.264       .  A
C852        C881   1.484       .  S
Cr853       O856   1.768       .  S
Cr854       O856   1.771       .  S
Cr855       O856   1.769       .  S
C858        C859   1.397       .  A
C858        H863   1.083       .  S
C859        O864   1.372       .  S
C861        C862   1.400       .  A
C861        H865   1.083       .  S
C862        O866   1.372       .  S
O864        H868   0.992       .  S
O866        H867   0.991       .  S
C869        C874   1.405       .  A
C870        C871   1.398   1_455  A
C870        H875   1.083       .  S
C871        C872   1.406       .  A
C871        O876   1.372   1_655  S
C873        C874   1.397       .  A
C873        H877   1.083       .  S
C874        O878   1.372       .  S
O876        H880   0.993       .  S
O878        H879   0.993       .  S
C881        C882   1.406       .  A
C881        C886   1.410       .  A
C882        H887   1.083       .  S
C883        C884   1.412       .  A
C883        O888   1.371       .  S
C884        C885   1.406       .  A
C885        H889   1.083       .  S
C886        O890   1.371       .  S
O888        H892   0.992       .  S
O890        H891   0.991       .  S
C893        C894   1.408       .  A
C893        C898   1.411       .  A
C894        H899   1.083       .  S
C895        C896   1.411       .  A
C895        O900   1.372       .  S
C896        C897   1.407       .  A
C897        H901   1.083       .  S
C898        O902   1.372       .  S
O900        H904   0.992       .  S
O902        H903   0.993       .  S
C905        C906   1.403   1_556  A
C906        C907   1.398       .  A
C906        H911   1.084       .  S
C907        O912   1.372       .  S
C908        C909   1.405       .  A
C909        C910   1.399       .  A
C909        H913   1.083       .  S
C910        O914   1.372       .  S
O912        H916   0.992       .  S
O914        H915   0.993       .  S
C917        C918   1.406       .  A
C917        C922   1.411       .  A
C918        C919   1.399       .  A
C918        H923   1.083       .  S
C919        C920   1.411       .  A
C919        O924   1.372       .  S
C920        C921   1.407       .  A
C921        C922   1.400       .  A
C921        H925   1.083       .  S
C922        O926   1.372       .  S
O924        H928   0.991       .  S
O926        H927   0.991       .  S
