geometry optimzed in LAMMPS
_audit_creation_date              2020-11-30 
_audit_creation_method            'lammps2cif' 
_symmetry_space_group_name_H-M    'P1' 
_symmetry_Int_Tables_number       1 
_symmetry_cell_setting            triclinic 
loop_ 
_symmetry_equiv_pos_as_xyz 
  x,y,z 
_cell_length_a                    38.91180653 
_cell_length_b                    24.84247870418617 
_cell_length_c                    45.406001769638415 
_cell_angle_alpha                 89.05211805877231 
_cell_angle_beta                  90.3601016999066 
_cell_angle_gamma                 89.04215207041712 
loop_ 
_atom_site_label 
_atom_site_type_symbol 
_atom_site_fract_x 
_atom_site_fract_y 
_atom_site_fract_z 
_atom_site_charge 
C1          C  0.11916734  0.83673271  0.18371772     0.82600
N2          N  0.10522139  0.88151939  0.17039058    -0.75700
C3          C  0.08368921  0.91442512  0.18549522     0.85100
N4          N  0.07574741  0.90198234  0.21371998    -0.75600
C5          C  0.08881702  0.85703675  0.22727750     0.85200
N6          N  0.11083558  0.82446164  0.21226173    -0.77300
C7          C  0.35506302  0.79707621  0.04379706     0.82600
N8          N  0.36771817  0.79082101  0.01600931    -0.75700
C9          C  0.38705903  0.83031134  0.00359346     0.85100
N10         N  0.39448831  0.87444549  0.01933960    -0.75600
C11         C  0.38283741  0.88043689  0.04712964     0.85200
N12         N  0.36261949  0.84208277  0.05918587    -0.77300
Zn13       Zn  0.45472537  0.87897929  0.39017466     1.49700
Zn14       Zn  0.45724270  0.75098950  0.38547441     1.49400
Zn15       Zn  0.46248719  0.82769143  0.32781660     1.49100
Zn16       Zn  0.03236005  0.82906835  0.36169901     1.49500
O17         O  0.47523124  0.81908412  0.36921179    -1.81700
O18         O  0.42768063  0.85315594  0.42420967    -0.72300
O19         O  0.43061711  0.71113837  0.35402019    -0.72200
O20         O  0.43206228  0.89430903  0.32045943    -0.71700
O21         O  0.42697551  0.76401900  0.42188723    -0.72400
O22         O  0.42399799  0.92718070  0.36506570    -0.72000
O23         O  0.43572357  0.76425222  0.31440768    -0.72500
O24         O  0.04792076  0.83972037  0.31859475    -0.71900
O25         O  0.49712004  0.70248792  0.39852605    -0.72700
O26         O  0.50507924  0.82906912  0.30259485    -0.72100
O27         O  0.05518796  0.76031252  0.37867699    -0.72500
O28         O  0.04934532  0.89154761  0.38672964    -0.72400
O29         O  0.49101518  0.92466615  0.40699907    -0.72200
C30         C  0.41870646  0.80777578  0.43461696     0.79600
C31         C  0.42500568  0.72147439  0.32674656     0.80000
C32         C  0.41822774  0.92874944  0.33750490     0.79000
C33         C  0.03004276  0.84850604  0.29524281     0.79400
C34         C  0.04342124  0.71541573  0.38784879     0.80500
C35         C  0.03294155  0.92055766  0.40506727     0.79600
C36         C  0.11849216  0.63533400  0.42429979     0.82600
N37         N  0.13288373  0.63697614  0.45176161    -0.75700
C38         C  0.15428300  0.59637328  0.46143041     0.85100
N39         N  0.16186691  0.55517218  0.44322726    -0.75600
C40         C  0.14823413  0.55347266  0.41572418     0.85200
N41         N  0.12654679  0.59370626  0.40619537    -0.77300
C42         C  0.37403943  0.59969451  0.30046454     0.82600
N43         N  0.36673069  0.61117570  0.27159081    -0.75700
C44         C  0.34555447  0.57887582  0.25613631     0.85100
N45         N  0.33189816  0.53498952  0.26969739    -0.75600
C46         C  0.33923613  0.52311581  0.29834651     0.85200
N47         N  0.36002661  0.55591866  0.31368156    -0.77300
Zn48       Zn  0.21505210  0.61074848  0.16026464     1.49700
Zn49       Zn  0.28427278  0.61499557  0.12324691     1.49400
Zn50       Zn  0.21709444  0.55701264  0.09787966     1.49100
Zn51       Zn  0.21532263  0.68651534  0.10384422     1.49500
O52         O  0.23327465  0.61780472  0.12093244    -1.82500
O53         O  0.25239538  0.59726816  0.18920959    -0.72300
O54         O  0.30338869  0.54864153  0.10258606    -0.72200
O55         O  0.18589385  0.50730196  0.12109067    -0.71700
O56         O  0.30206331  0.60869409  0.16625617    -0.72400
O57         O  0.18479288  0.54793674  0.16421518    -0.72000
O58         O  0.25682385  0.51136570  0.08373472    -0.72500
O59         O  0.18665041  0.67321076  0.06643601    -0.71900
O60         O  0.30280239  0.68120753  0.10200383    -0.72700
O61         O  0.19096637  0.58425638  0.06260497    -0.72100
O62         O  0.25605861  0.73185610  0.09177522    -0.72500
O63         O  0.18581778  0.72872013  0.13350906    -0.72400
O64         O  0.18803874  0.67503802  0.17306991    -0.72200
C65         C  0.28495474  0.59825509  0.18952858     0.79600
C66         C  0.28926435  0.51191280  0.08769603     0.80000
C67         C  0.17596423  0.50987359  0.14769425     0.79000
C68         C  0.18034373  0.62990362  0.05276977     0.79400
C69         C  0.28855031  0.72394578  0.09125234     0.80500
C70         C  0.17788659  0.71825956  0.16025518     0.79600
C71         C  0.10199176  0.29958447  0.17569031     0.82600
N72         N  0.11864691  0.29144686  0.20187955    -0.75700
C73         C  0.14404804  0.32494027  0.21002987     0.85100
N74         N  0.15248288  0.36649295  0.19211960    -0.75600
C75         C  0.13577106  0.37562337  0.16620156     0.85200
N76         N  0.11076402  0.34162886  0.15769605    -0.77300
C77         C  0.35904709  0.31897142  0.04628619     0.82600
N78         N  0.34618500  0.29703099  0.02130489    -0.75700
C79         C  0.31972045  0.32130789  0.00654466     0.85100
N80         N  0.30542594  0.36715008  0.01718683    -0.75600
C81         C  0.31754131  0.38922404  0.04224836     0.85200
N82         N  0.34465840  0.36524273  0.05675994    -0.77300
Zn83       Zn  0.24414683  0.29641039  0.31547533     1.49700
Zn84       Zn  0.24165495  0.37376481  0.36970674     1.49400
Zn85       Zn  0.17566850  0.30542793  0.35617487     1.49100
Zn86       Zn  0.24517188  0.24553299  0.37998307     1.49500
O87         O  0.22643350  0.30488976  0.35521911    -1.81700
O88         O  0.27265767  0.36001369  0.30245250    -0.72300
O89         O  0.20226900  0.42504415  0.37708423    -0.72200
O90         O  0.15705126  0.29936891  0.31436591    -0.71700
O91         O  0.27431510  0.41064402  0.34224495    -0.72400
O92         O  0.20451060  0.29299799  0.28727483    -0.72000
O93         O  0.15587796  0.37468474  0.37400822    -0.72500
O94         O  0.20698148  0.19644024  0.39191623    -0.71900
O95         O  0.26386828  0.36309764  0.40893191    -0.72700
O96         O  0.15875341  0.24172306  0.38022268    -0.72100
O97         O  0.26575918  0.27463700  0.41764890    -0.72500
O98         O  0.28001651  0.19854863  0.35847823    -0.72400
O99         O  0.27436236  0.22925807  0.31244804    -0.72200
C100        C  0.28299367  0.40143478  0.31580657     0.79600
C101        C  0.17003154  0.41919010  0.37996837     0.80000
C102        C  0.17187873  0.29547993  0.28949847     0.79000
C103        C  0.17438229  0.20104465  0.39180988     0.79400
C104        C  0.27093745  0.32285193  0.42562440     0.80500
C105        C  0.28728982  0.19572117  0.33121862     0.79600
C106        C  0.11000621  0.12198112  0.43774278     0.82600
N107        N  0.10510817  0.07597623  0.42245292    -0.75700
C108        C  0.08664122  0.03534638  0.43433324     0.85100
N109        N  0.07369412  0.04067377  0.46182671    -0.75600
C110        C  0.07823396  0.08620225  0.47727458     0.85200
N111        N  0.09604136  0.12745206  0.46501014    -0.77300
C112        C  0.34076666  0.10473206  0.27977330     0.82600
N113        N  0.34678250  0.10806287  0.25037348    -0.75700
C114        C  0.36338576  0.06761505  0.23644277     0.85100
N115        N  0.37458780  0.02399432  0.25201905    -0.75600
C116        C  0.37004320  0.02050372  0.28150856     0.85200
N117        N  0.35296689  0.06106346  0.29567875    -0.77300
Zn118      Zn  0.50295189  0.05085207  0.09610041     1.49700
Zn119      Zn  0.49214092  0.17991534  0.09580621     1.49400
Zn120      Zn  0.42841169  0.09885635  0.10764948     1.49100
Zn121      Zn  0.48647379  0.11117991  0.15429159     1.49500
O122        O  0.47748277  0.11071330  0.11276283    -1.81700
O123        O  0.01276402  0.08210716  0.04684055    -0.72300
O124        O  0.44940941  0.22290907  0.08102597    -0.72200
O125        O  0.41805782  0.02855888  0.08767345    -0.71700
O126        O  0.00918615  0.17151120  0.04718060    -0.72400
O127        O  0.47071348  0.99966740  0.07675932    -0.72000
O128        O  0.40969704  0.15890283  0.08234436    -0.72500
O129        O  0.44407365  0.12512177  0.17726490    -0.71900
O130        O  0.01629007  0.23287140  0.10852463    -0.72700
O131        O  0.40282829  0.10116534  0.14628489    -0.72100
O132        O  0.02917373  0.18315806  0.14835807    -0.72500
O133        O  0.03235096  0.05259633  0.14787576    -0.72400
O134        O  0.02595099  0.00941118  0.10594123    -0.72200
C135        C  0.01892910  0.12799927  0.03518969     0.79600
C136        C  0.41934202  0.20588817  0.07495558     0.80000
C137        C  0.43826633  0.99469167  0.07570060     0.79000
C138        C  0.41281537  0.11554274  0.17166718     0.79400
C139        C  0.03260419  0.22568167  0.13267826     0.80500
C140        C  0.03932087  0.01300770  0.13142525     0.79600
C141        C  0.37365602  0.07314764  0.20556256    -0.14000
C142        C  0.38859454  0.11827407  0.19608660    -0.29200
H143        H  0.37647416  0.03661657  0.19286313     0.15000
H144        H  0.39003980  0.15260337  0.21056187     0.15600
C145        C  0.03819458  0.13085601  0.00725812    -0.14000
C146        C  0.04939615  0.08562675  0.99452805    -0.29200
H147        H  0.04280329  0.16985810  0.99699459     0.15000
H148        H  0.04377108  0.04689892  0.00471909     0.15600
C149        C  0.32040461  0.14914822  0.29284030    -0.14000
C150        C  0.31065459  0.15177121  0.32114580    -0.29200
H151        H  0.31193127  0.18091568  0.27760162     0.15000
H152        H  0.31902949  0.12072979  0.33683400     0.15600
C153        C  0.15454628  0.15721917  0.40505903    -0.14000
C154        C  0.12923359  0.16660847  0.42431844    -0.29200
H155        H  0.16250438  0.11609974  0.40041082     0.15000
H156        H  0.12355571  0.20748219  0.43118580     0.15600
C157        C  0.28409434  0.33443534  0.45520250    -0.14000
C158        C  0.29241034  0.29655927  0.47552382    -0.29200
H159        H  0.28612639  0.37670392  0.46069491     0.15000
H160        H  0.29184819  0.25414397  0.47012631     0.15600
C161        C  0.38757753  0.29120064  0.06251113    -0.14000
C162        C  0.39457191  0.23895716  0.05769803    -0.29200
H163        H  0.40123585  0.31229406  0.07964748     0.15000
H164        H  0.37870255  0.21720256  0.04229056     0.15600
C165        C  0.16404581  0.31627751  0.23725827    -0.14000
C166        C  0.15089369  0.29626139  0.26231308    -0.29200
H167        H  0.19002178  0.33175940  0.23733353     0.15000
H168        H  0.12401642  0.28526286  0.26334723     0.15600
C169        C  0.05677365  0.26719943  0.14210699    -0.14000
C170        C  0.07552080  0.26122540  0.16692394    -0.29200
H171        H  0.06006511  0.30226333  0.12786476     0.15000
H172        H  0.07193742  0.22624987  0.18117866     0.15600
C173        C  0.15606356  0.46673027  0.16147363    -0.14000
C174        C  0.14566129  0.42226716  0.14786106    -0.29200
H175        H  0.15276702  0.46942793  0.18519140     0.15000
H176        H  0.14689502  0.41883771  0.12407716     0.15600
C177        C  0.29876298  0.43627972  0.05412807    -0.14000
C178        C  0.31091707  0.46818101  0.07530971    -0.29200
H179        H  0.27339658  0.44483548  0.04485387     0.15000
H180        H  0.33688100  0.46196601  0.08375591     0.15600
C181        C  0.32179083  0.47883302  0.31394386    -0.14000
C182        C  0.30443133  0.44056586  0.29980406    -0.29200
H183        H  0.32230955  0.47884899  0.33787005     0.15000
H184        H  0.30510383  0.43884531  0.27592233     0.15600
C185        C  0.33386547  0.59467229  0.22602560    -0.14000
C186        C  0.30151063  0.58382177  0.21791590    -0.29200
H187        H  0.35037672  0.61803082  0.21167788     0.15000
H188        H  0.28488662  0.56423484  0.23384981     0.15600
C189        C  0.16238557  0.51348033  0.39525800    -0.14000
C190        C  0.14919818  0.46408230  0.39228932    -0.29200
H191        H  0.18764904  0.52188153  0.38643159     0.15000
H192        H  0.12416186  0.45530632  0.40149541     0.15600
C193        C  0.15834794  0.58739636  0.00818455    -0.14000
C194        C  0.16060961  0.63190844  0.02461921    -0.29200
H195        H  0.17133285  0.55058450  0.01575141     0.15000
H196        H  0.14881305  0.66965913  0.01709551     0.15600
C197        C  0.39484071  0.63603176  0.31853425    -0.14000
C198        C  0.40567942  0.68378018  0.30836120    -0.29200
H199        H  0.40030440  0.62387380  0.34120765     0.15000
H200        H  0.40012934  0.69603086  0.28571771     0.15600
C201        C  0.09544580  0.67998282  0.41392192    -0.14000
C202        C  0.06738945  0.67135324  0.39727828    -0.29200
H203        H  0.10040758  0.72030718  0.42162697     0.15000
H204        H  0.06049506  0.63032688  0.39216797     0.15600
C205        C  0.39564490  0.97250313  0.32528389    -0.14000
C206        C  0.38633621  0.97365417  0.29681412    -0.29200
H207        H  0.38816434  0.00544692  0.33945552     0.15000
H208        H  0.39455429  0.94070174  0.28290511     0.15600
C209        C  0.05047612  0.95824292  0.42440437    -0.14000
C210        C  0.07698605  0.98883646  0.41620796    -0.29200
H211        H  0.03755663  0.96629044  0.44505794     0.15000
H212        H  0.08853957  0.98384471  0.39468392     0.15600
C213        C  0.42460891  0.94911942  0.05925720    -0.14000
C214        C  0.39387332  0.92699344  0.06444153    -0.29200
H215        H  0.44148584  0.93146382  0.04290479     0.15000
H216        H  0.37789664  0.94114252  0.08235159     0.15600
C217        C  0.39767547  0.85136291  0.47921817    -0.14000
C218        C  0.39942446  0.80675655  0.46271849    -0.29200
H219        H  0.41008624  0.88778492  0.47147807     0.15000
H220        H  0.38881346  0.76916159  0.47076094     0.15600
C221        C  0.33405749  0.75451437  0.05757306    -0.14000
C222        C  0.31005054  0.76598202  0.07785311    -0.29200
H223        H  0.33740416  0.71339673  0.05017719     0.15000
H224        H  0.30431157  0.80765063  0.08315706     0.15600
C225        C  0.06192150  0.96888329  0.14277606    -0.14000
C226        C  0.06738268  0.96265298  0.17188773    -0.29200
H227        H  0.07098898  0.93836462  0.12767294     0.15000
H228        H  0.05614970  0.99159817  0.18689426     0.15600
C229        C  0.07694351  0.84260903  0.25742745    -0.14000
C230        C  0.04614582  0.86114525  0.26664565    -0.29200
H231        H  0.09217785  0.81503648  0.27120723     0.15000
H232        H  0.03018784  0.88495080  0.25141204     0.15600
C233        C  0.15617182  0.75557206  0.17751993    -0.14000
C234        C  0.14221995  0.80136349  0.16638473    -0.29200
H235        H  0.15090631  0.74397740  0.20020526     0.15000
H236        H  0.14727833  0.81292267  0.14366557     0.15600
C237        C  0.10909095  0.80763133  0.68616401     0.82600
N238        N  0.09965433  0.84963508  0.66792230    -0.75700
C239        C  0.07558899  0.88613834  0.67665051     0.85100
N240        N  0.06054134  0.87962198  0.70322573    -0.75600
C241        C  0.06955437  0.83836727  0.72153901     0.85200
N242        N  0.09394012  0.80208092  0.71305427    -0.77300
C243        C  0.34691001  0.82233281  0.54675080     0.82600
N244        N  0.35972975  0.81798731  0.51904333    -0.75700
C245        C  0.38283744  0.85410964  0.50895572     0.85100
N246        N  0.39243789  0.89495096  0.52642281    -0.75600
C247        C  0.37988264  0.90001065  0.55407875     0.85200
N248        N  0.35695971  0.86343783  0.56428397    -0.77300
Zn249      Zn  0.46149199  0.86283950  0.88598770     1.49700
Zn250      Zn  0.46688520  0.73468336  0.88054033     1.49400
Zn251      Zn  0.47440664  0.81062169  0.82404852     1.49100
Zn252      Zn  0.03232882  0.80373917  0.86655586     1.49500
O253        O  0.48479005  0.80366076  0.86580472    -1.81700
O254        O  0.43142110  0.83442091  0.91835178    -0.72300
O255        O  0.43703986  0.69939785  0.84910600    -0.72200
O256        O  0.45059774  0.88073363  0.81523293    -0.71700
O257        O  0.43762304  0.74538009  0.91753934    -0.72400
O258        O  0.43497069  0.91438821  0.85821686    -0.72000
O259        O  0.44321546  0.75320300  0.80996626    -0.72500
O260        O  0.05335378  0.79951834  0.82566042    -0.71900
O261        O  0.50716546  0.68553822  0.89242921    -0.72700
O262        O  0.51687448  0.81012089  0.79958070    -0.72100
O263        O  0.04838044  0.73823375  0.89018613    -0.72500
O264        O  0.05081154  0.87039769  0.88659074    -0.72400
O265        O  0.49667762  0.90771382  0.90606139    -0.72200
C266        C  0.42564660  0.78791700  0.92936971     0.79600
C267        C  0.43022021  0.71211093  0.82226952     0.80000
C268        C  0.43559977  0.91685144  0.83016399     0.79000
C269        C  0.03977467  0.80810574  0.80037987     0.79400
C270        C  0.03399633  0.69410566  0.89717457     0.80500
C271        C  0.03505549  0.90289649  0.90343147     0.79600
C272        C  0.10260953  0.61666688  0.94240303     0.82600
N273        N  0.11932473  0.62352671  0.96853958    -0.75700
C274        C  0.14040981  0.58371781  0.97954456     0.85100
N275        N  0.14537272  0.53825697  0.96391942    -0.75600
C276        C  0.12940436  0.53144999  0.93763528     0.85200
N277        N  0.10773139  0.57056939  0.92707609    -0.77300
C278        C  0.36405585  0.60680769  0.79913960     0.82600
N279        N  0.35475200  0.61991602  0.77081955    -0.75700
C280        C  0.33010575  0.59116322  0.75687046     0.85100
N281        N  0.31547715  0.54890060  0.77115757    -0.75600
C282        C  0.32497070  0.53549664  0.79913575     0.85200
N283        N  0.34886279  0.56493645  0.81307862    -0.77300
Zn284      Zn  0.20719006  0.61608106  0.65054018     1.49700
Zn285      Zn  0.28179053  0.60872144  0.62146973     1.49400
Zn286      Zn  0.21507208  0.55987207  0.58856190     1.49100
Zn287      Zn  0.22174842  0.68629828  0.59173795     1.49500
O288        O  0.23178527  0.61808408  0.61306819    -1.82500
O289        O  0.23991416  0.60902309  0.68485279    -0.72300
O290        O  0.30021771  0.53845571  0.60340778    -0.72200
O291        O  0.18023146  0.51406565  0.60967197    -0.71700
O292        O  0.29226657  0.60493503  0.66570880    -0.72400
O293        O  0.17703812  0.55107038  0.65376514    -0.72000
O294        O  0.25409383  0.50995313  0.57945760    -0.72500
O295        O  0.19810100  0.67520361  0.55186529    -0.71900
O296        O  0.30736947  0.67308002  0.60475264    -0.72700
O297        O  0.19439236  0.58634619  0.54995349    -0.72100
O298        O  0.26630605  0.72524242  0.58414440    -0.72500
O299        O  0.18987496  0.73358399  0.61594569    -0.72400
O300        O  0.17829165  0.68345541  0.65563831    -0.72200
C301        C  0.27235440  0.60473558  0.68790187     0.79600
C302        C  0.28557464  0.50444188  0.58690865     0.80000
C303        C  0.16896157  0.51432066  0.63590020     0.79000
C304        C  0.18926525  0.63290309  0.53842898     0.79400
C305        C  0.29782045  0.71558948  0.59058104     0.80500
C306        C  0.17437083  0.72665268  0.64035293     0.79600
C307        C  0.09821710  0.32688576  0.67831636     0.82600
N308        N  0.11071720  0.30529965  0.70413528    -0.75700
C309        C  0.13325326  0.33311674  0.72075004     0.85100
N310        N  0.14373298  0.38218544  0.71127553    -0.75600
C311        C  0.13221361  0.40344545  0.68525084     0.85200
N312        N  0.10952312  0.37558472  0.66872248    -0.77300
C313        C  0.33458022  0.29356780  0.54886988     0.82600
N314        N  0.32264228  0.27792142  0.52223876    -0.75700
C315        C  0.30343315  0.31223771  0.50526259     0.85100
N316        N  0.29497774  0.36154939  0.51560575    -0.75600
C317        C  0.30618079  0.37755130  0.54232724     0.85200
N318        N  0.32652625  0.34367120  0.55900319    -0.77300
Zn319      Zn  0.23985356  0.30035405  0.82179167     1.49700
Zn320      Zn  0.24810939  0.37251632  0.87788715     1.49400
Zn321      Zn  0.17659382  0.31782723  0.86623646     1.49100
Zn322      Zn  0.24355089  0.24924254  0.88747724     1.49500
O323        O  0.22663520  0.30925796  0.86303028    -1.81700
O324        O  0.26538446  0.36613120  0.80676281    -0.72300
O325        O  0.21436703  0.41756214  0.89927827    -0.72200
O326        O  0.15669962  0.33002573  0.82512218    -0.71700
O327        O  0.26932618  0.41678346  0.84641043    -0.72400
O328        O  0.19737039  0.29787800  0.79541389    -0.72000
O329        O  0.16307273  0.38195570  0.89201998    -0.72500
O330        O  0.20368390  0.20149116  0.89766204    -0.71900
O331        O  0.28331225  0.35627524  0.90835899    -0.72700
O332        O  0.15686853  0.24887524  0.88399235    -0.72100
O333        O  0.26785814  0.27569047  0.92492542    -0.72500
O334        O  0.27716221  0.20441680  0.86415828    -0.72400
O335        O  0.27209412  0.23507648  0.81786955    -0.72200
C336        C  0.27473189  0.40908128  0.81923398     0.79600
C337        C  0.18220058  0.41726973  0.90352859     0.80000
C338        C  0.16723994  0.31751238  0.79952522     0.79000
C339        C  0.17113453  0.20638171  0.89506275     0.79400
C340        C  0.28412907  0.31952161  0.92805140     0.80500
C341        C  0.28534169  0.20251723  0.83705137     0.79600
C342        C  0.09886248  0.12079764  0.92709971     0.82600
N343        N  0.09744619  0.07303863  0.91260552    -0.75700
C344        C  0.08054198  0.03075483  0.92487177     0.85100
N345        N  0.06590499  0.03656488  0.95158921    -0.75600
C346        C  0.06666194  0.08357387  0.96590239     0.85200
N347        N  0.08281565  0.12629253  0.95350579    -0.77300
C348        C  0.35558141  0.12520065  0.79465236     0.82600
N349        N  0.37323202  0.13360829  0.76921687    -0.75700
C350        C  0.40052108  0.10132918  0.76253081     0.85100
N351        N  0.40969476  0.06035727  0.78102663    -0.75600
C352        C  0.39188129  0.05044262  0.80605775     0.85200
N353        N  0.36504199  0.08347896  0.81311486    -0.77300
Zn354      Zn  0.50150257  0.07634496  0.59332482     1.49700
Zn355      Zn  0.48861659  0.20224882  0.59460441     1.49400
Zn356      Zn  0.42919232  0.12122679  0.61579308     1.49100
Zn357      Zn  0.49884563  0.13357831  0.65482039     1.49500
O358        O  0.47923730  0.13354411  0.61489893    -1.81700
O359        O  0.03078413  0.08826743  0.56152931    -0.72300
O360        O  0.44464572  0.24377881  0.58676148    -0.72200
O361        O  0.41592389  0.05006592  0.59599555    -0.71700
O362        O  0.02484763  0.17740602  0.55991011    -0.72400
O363        O  0.46695324  0.02424551  0.57905932    -0.72000
O364        O  0.40379013  0.18406706  0.59573854    -0.72500
O365        O  0.46044653  0.13106562  0.68463701    -0.71900
O366        O  0.02672971  0.23121862  0.62650400    -0.72700
O367        O  0.41279180  0.12078673  0.65797891    -0.72100
O368        O  0.01997391  0.18109009  0.66694441    -0.72500
O369        O  0.01450038  0.05355483  0.66588514    -0.72400
O370        O  0.02905618  0.01625415  0.62353108    -0.72200
C371        C  0.03664264  0.13364612  0.54927814     0.79600
C372        C  0.41319949  0.23059614  0.58693747     0.80000
C373        C  0.43483586  0.01732900  0.58162569     0.79000
C374        C  0.42795201  0.12559591  0.68271976     0.79400
C375        C  0.03323894  0.22089690  0.65364296     0.80500
C376        C  0.02968551  0.01674925  0.65156278     0.79600
C377        C  0.42113453  0.11009841  0.73587546    -0.14000
C378        C  0.40708674  0.12414044  0.70977495    -0.29200
H379        H  0.44824876  0.09900960  0.73712687     0.15000
H380        H  0.37946343  0.13057875  0.70790178     0.15600
C381        C  0.05648056  0.13492436  0.52145602    -0.14000
C382        C  0.06268215  0.08913544  0.50678352    -0.29200
H383        H  0.06381992  0.17346976  0.51201527     0.15000
H384        H  0.05366027  0.05125224  0.51592794     0.15600
C385        C  0.32699514  0.16267403  0.80206457    -0.14000
C386        C  0.31139845  0.16171766  0.82841419    -0.29200
H387        H  0.31978921  0.19355938  0.78588200     0.15000
H388        H  0.31937567  0.13193239  0.84495288     0.15600
C389        C  0.15001732  0.16059728  0.90482419    -0.14000
C390        C  0.11774825  0.16678225  0.91460579    -0.29200
H391        H  0.16223430  0.12093111  0.90595553     0.15000
H392        H  0.10650204  0.20691135  0.91638660     0.15600
C393        C  0.30223074  0.33258829  0.95553106    -0.14000
C394        C  0.30686609  0.29919416  0.97869004    -0.29200
H395        H  0.31040242  0.37408048  0.95749201     0.15000
H396        H  0.30096795  0.25673636  0.97731927     0.15600
C397        C  0.35679144  0.25576703  0.56575943    -0.14000
C398        C  0.38748596  0.27056412  0.57603447    -0.29200
H399        H  0.35035195  0.21337750  0.56554387     0.15000
H400        H  0.39522926  0.31223257  0.57352700     0.15600
C401        C  0.14927634  0.30855623  0.74735103    -0.14000
C402        C  0.14475838  0.33051342  0.77389200    -0.29200
H403        H  0.16743892  0.27537489  0.74460709     0.15000
H404        H  0.12543642  0.36220052  0.77637345     0.15600
C405        C  0.05721650  0.25372649  0.67084580    -0.14000
C406        C  0.07316258  0.29736652  0.66019995    -0.29200
H407        H  0.06232795  0.24042720  0.69338797     0.15000
H408        H  0.06763182  0.31189875  0.63795915     0.15600
C409        C  0.14766373  0.46908342  0.64607575    -0.14000
C410        C  0.14648631  0.45490008  0.67474739    -0.29200
H411        H  0.13646485  0.44321522  0.62963354     0.15000
H412        H  0.15997946  0.47882611  0.69083038     0.15600
C413        C  0.29276172  0.42948775  0.55311833    -0.14000
C414        C  0.30475169  0.45632862  0.57643911    -0.29200
H415        H  0.27083145  0.44631829  0.54093382     0.15000
H416        H  0.32775522  0.44230416  0.58809408     0.15600
C417        C  0.30867354  0.49103880  0.81524334    -0.14000
C418        C  0.29185301  0.45135976  0.80183744    -0.29200
H419        H  0.31121727  0.49057342  0.83909107     0.15000
H420        H  0.29081952  0.44979009  0.77795809     0.15600
C421        C  0.31853390  0.60575596  0.72655530    -0.14000
C422        C  0.28601310  0.59616248  0.71807937    -0.29200
H423        H  0.33633065  0.62475019  0.71143915     0.15000
H424        H  0.26798350  0.58100822  0.73429979     0.15600
C425        C  0.13806522  0.48420743  0.91946618    -0.14000
C426        C  0.16839715  0.45845711  0.92333479    -0.29200
H427        H  0.12143486  0.47408687  0.90113822     0.15000
H428        H  0.18608158  0.47232426  0.94011105     0.15600
C429        C  0.16948470  0.59484980  0.49146012    -0.14000
C430        C  0.17274421  0.63794029  0.50883608    -0.29200
H431        H  0.17986937  0.55617316  0.49907849     0.15000
H432        H  0.16417173  0.67744985  0.50093466     0.15600
C433        C  0.38960858  0.63767535  0.81586225    -0.14000
C434        C  0.40627673  0.67992548  0.80455324    -0.29200
H435        H  0.39435157  0.62548646  0.83863768     0.15000
H436        H  0.40154597  0.69242082  0.78182896     0.15600
C437        C  0.08068049  0.66039850  0.92983620    -0.14000
C438        C  0.05467093  0.65043560  0.91117808    -0.29200
H439        H  0.08574567  0.70149327  0.93624497     0.15000
H440        H  0.04772347  0.60914515  0.90672491     0.15600
C441        C  0.42040721  0.96285223  0.81350755    -0.14000
C442        C  0.40204232  0.00366884  0.82506254    -0.29200
H443        H  0.42578232  0.96361165  0.79003061     0.15000
H444        H  0.39482755  0.00282416  0.84813044     0.15600
C445        C  0.05355182  0.94303788  0.92036883    -0.14000
C446        C  0.07382789  0.98090052  0.90831138    -0.29200
H447        H  0.04465894  0.94732116  0.94284944     0.15000
H448        H  0.08138727  0.97850252  0.88537736     0.15600
C449        C  0.42049969  0.97115303  0.56584618    -0.14000
C450        C  0.39122648  0.94554836  0.57247811    -0.29200
H451        H  0.43622714  0.95611481  0.54796496     0.15000
H452        H  0.37620847  0.95726664  0.59147614     0.15600
C453        C  0.40027294  0.82855398  0.97318804    -0.14000
C454        C  0.40621367  0.78394045  0.95745017    -0.29200
H455        H  0.40860171  0.86706659  0.96432694     0.15000
H456        H  0.39978087  0.74460498  0.96643141     0.15600
C457        C  0.32055962  0.78434638  0.55668361    -0.14000
C458        C  0.32406323  0.75483950  0.58159086    -0.29200
H459        H  0.29895016  0.77756036  0.54201676     0.15000
H460        H  0.34737198  0.75764371  0.59474931     0.15600
C461        C  0.04687738  0.97339702  0.66879766    -0.14000
C462        C  0.06429287  0.93157684  0.65726624    -0.29200
H463        H  0.04354716  0.97511133  0.69252489     0.15000
H464        H  0.06911437  0.92993189  0.63375851     0.15600
C465        C  0.05004945  0.83268932  0.74901493    -0.14000
C466        C  0.06157031  0.80801873  0.77376883    -0.29200
H467        H  0.02520214  0.85335824  0.74921398     0.15000
H468        H  0.08728731  0.79038442  0.77481404     0.15600
C469        C  0.15085754  0.76972558  0.65064510    -0.14000
C470        C  0.13439206  0.76644380  0.67661581    -0.29200
H471        H  0.14655491  0.80447821  0.63620192     0.15000
H472        H  0.13904743  0.73194651  0.69117443     0.15600
C473        C  0.61635571  0.81403466  0.19642963     0.82600
N474        N  0.60550038  0.85400353  0.17746202    -0.75700
C475        C  0.57806765  0.88564016  0.18432079     0.85100
N476        N  0.56113721  0.87632212  0.20976452    -0.75600
C477        C  0.57162580  0.83737431  0.22894364     0.85200
N478        N  0.59937292  0.80581497  0.22235233    -0.77300
C479        C  0.85065064  0.80953087  0.04194620     0.82600
N480        N  0.85874947  0.80325501  0.01298316    -0.75700
C481        C  0.88324731  0.83432598  0.00042927     0.85100
N482        N  0.89920461  0.87162959  0.01664863    -0.75600
C483        C  0.89137710  0.87864964  0.04525634     0.85200
N484        N  0.86706704  0.84740187  0.05816853    -0.77300
Zn485      Zn  0.96224999  0.87996722  0.38907051     1.49700
Zn486      Zn  0.96845820  0.75290915  0.38025278     1.49400
Zn487      Zn  0.96047983  0.83671775  0.32539808     1.49100
Zn488      Zn  0.52586403  0.82122222  0.37349215     1.49500
O489        O  0.98133131  0.82416245  0.36407535    -1.81700
O490        O  0.93579900  0.84765322  0.42196929    -0.72300
O491        O  0.93968732  0.71381718  0.35051989    -0.72200
O492        O  0.92883214  0.90271775  0.32342192    -0.71700
O493        O  0.94078085  0.75890972  0.41852856    -0.72400
O494        O  0.93169461  0.93642101  0.36814605    -0.72000
O495        O  0.93404541  0.77202328  0.31291118    -0.72500
O496        O  0.54918314  0.81928995  0.33368106    -0.71900
O497        O  0.01121795  0.70687653  0.38874368    -0.72700
O498        O  0.99735559  0.84913117  0.29567015    -0.72100
O499        O  0.54297194  0.75501787  0.39623968    -0.72500
O500        O  0.54149575  0.88914098  0.39422756    -0.72400
O501        O  0.00060272  0.91786850  0.40805410    -0.72200
C502        C  0.92996425  0.80054557  0.43192094     0.79600
C503        C  0.92819253  0.72647607  0.32492843     0.80000
C504        C  0.92059798  0.93902755  0.34173789     0.79000
C505        C  0.53728675  0.82353442  0.30755446     0.79400
C506        C  0.52903238  0.71031111  0.40285133     0.80500
C507        C  0.52361168  0.92534645  0.40687403     0.79600
C508        C  0.60084131  0.62993454  0.44274141     0.82600
N509        N  0.61711762  0.63510958  0.46911303    -0.75700
C510        C  0.63869282  0.59548188  0.47939432     0.85100
N511        N  0.64477834  0.55153927  0.46267881    -0.75600
C512        C  0.62922198  0.54630527  0.43599521     0.85200
N513        N  0.60680995  0.58535489  0.42627163    -0.77300
C514        C  0.87490152  0.60426950  0.30393805     0.82600
N515        N  0.86618901  0.61438161  0.27528517    -0.75700
C516        C  0.84278406  0.58346665  0.26160871     0.85100
N517        N  0.82822162  0.54202826  0.27662153    -0.75600
C518        C  0.83719464  0.53099284  0.30507506     0.85200
N519        N  0.86030152  0.56261290  0.31874251    -0.77300
Zn520      Zn  0.71573998  0.62630074  0.16263402     1.49700
Zn521      Zn  0.78682746  0.61361066  0.12909352     1.49400
Zn522      Zn  0.71803003  0.55832621  0.10399021     1.49100
Zn523      Zn  0.72426071  0.68659374  0.10027726     1.49500
O524        O  0.73644176  0.62139107  0.12367012    -1.82500
O525        O  0.75047362  0.61860243  0.19462519    -0.72300
O526        O  0.80476749  0.54603753  0.10873909    -0.72200
O527        O  0.68767504  0.51494158  0.13141534    -0.71700
O528        O  0.80063742  0.60602730  0.17253852    -0.72400
O529        O  0.68510355  0.56496605  0.17143346    -0.72000
O530        O  0.75698435  0.50946090  0.09164385    -0.72500
O531        O  0.69640402  0.66823548  0.06334011    -0.71900
O532        O  0.81025893  0.67875242  0.11100128    -0.72700
O533        O  0.69116873  0.57943738  0.06698489    -0.72100
O534        O  0.76813547  0.72457451  0.08764106    -0.72500
O535        O  0.69458581  0.73783061  0.12477012    -0.72400
O536        O  0.68890451  0.69468191  0.16772541    -0.72200
C537        C  0.78252009  0.60870248  0.19578850     0.79600
C538        C  0.78956940  0.50900629  0.09484283     0.80000
C539        C  0.67735351  0.52292458  0.15761537     0.79000
C540        C  0.68525577  0.62401804  0.05338341     0.79400
C541        C  0.79987779  0.71770331  0.09436579     0.80500
C542        C  0.68249382  0.73498357  0.15082886     0.79600
C543        C  0.59497608  0.31699202  0.17424876     0.82600
N544        N  0.60646796  0.30217416  0.20174941    -0.75700
C545        C  0.62843882  0.33432361  0.21666887     0.85100
N546        N  0.63935243  0.38064880  0.20360194    -0.75600
C547        C  0.62860556  0.39459804  0.17586088     0.85200
N548        N  0.60666996  0.36255849  0.16139638    -0.77300
C549        C  0.85787426  0.32513993  0.03829863     0.82600
N550        N  0.84758533  0.31863203  0.00989931    -0.75700
C551        C  0.82127808  0.34910737  0.99860578     0.85100
N552        N  0.80562851  0.38625642  0.01560456    -0.75600
C553        C  0.81567677  0.39346567  0.04382089     0.85200
N554        N  0.84186799  0.36259997  0.05539647    -0.77300
Zn555      Zn  0.73808677  0.30809450  0.32125774     1.49700
Zn556      Zn  0.74750975  0.37341939  0.38120795     1.49400
Zn557      Zn  0.67308482  0.33265810  0.36249448     1.49100
Zn558      Zn  0.73453426  0.24890528  0.38355707     1.49500
O559        O  0.72295558  0.31585189  0.36207168    -1.81700
O560        O  0.76826182  0.37114087  0.31057488    -0.72300
O561        O  0.71433975  0.42540986  0.39923269    -0.72200
O562        O  0.65618551  0.34795840  0.32011287    -0.71700
O563        O  0.77700108  0.41435024  0.35246091    -0.72400
O564        O  0.69755834  0.31276607  0.29225286    -0.72000
O565        O  0.66167562  0.39897849  0.38793211    -0.72500
O566        O  0.69113145  0.20859789  0.39009966    -0.71900
O567        O  0.77522027  0.34675212  0.41607591    -0.72700
O568        O  0.64821644  0.26653777  0.37906246    -0.72100
O569        O  0.75832719  0.26251082  0.42279486    -0.72500
O570        O  0.76659971  0.20049396  0.36073635    -0.72400
O571        O  0.76687265  0.23902899  0.31625859    -0.72200
C572        C  0.78168045  0.40927285  0.32488033     0.79600
C573        C  0.68190844  0.43105146  0.40092885     0.80000
C574        C  0.66788713  0.33487186  0.29492952     0.79000
C575        C  0.65922876  0.22031000  0.38812997     0.79400
C576        C  0.77463048  0.30346406  0.43146349     0.80500
C577        C  0.77664211  0.20141802  0.33414383     0.79600
C578        C  0.59051774  0.14208377  0.42914246     0.82600
N579        N  0.58662587  0.09471573  0.41469810    -0.75700
C580        C  0.57044177  0.05293863  0.42807685     0.85100
N581        N  0.55899685  0.05862524  0.45596151    -0.75600
C582        C  0.56251855  0.10527152  0.47041615     0.85200
N583        N  0.57802849  0.14744984  0.45690750    -0.77300
C584        C  0.83982557  0.11995379  0.28589961     0.82600
N585        N  0.85180639  0.12988124  0.25836116    -0.75700
C586        C  0.87621091  0.09775800  0.24653926     0.85100
N587        N  0.88808186  0.05425997  0.26198292    -0.75600
C588        C  0.87640695  0.04294740  0.28940309     0.85200
N589        N  0.85223766  0.07621057  0.30177459    -0.77300
Zn590      Zn  0.99069356  0.05642631  0.08433709     1.49700
Zn591      Zn  0.98460346  0.18569682  0.08538181     1.49400
Zn592      Zn  0.92575136  0.11375257  0.11509192     1.49100
Zn593      Zn  0.00088977  0.11694899  0.14422298     1.49500
O594        O  0.97529693  0.11827287  0.10715007    -1.81700
O595        O  0.53327426  0.07723130  0.06397252    -0.72300
O596        O  0.94055650  0.22749222  0.07644759    -0.72200
O597        O  0.90561552  0.04602511  0.09747785    -0.71700
O598        O  0.52258794  0.16540953  0.06010232    -0.72400
O599        O  0.95082314  0.00783692  0.07596031    -0.72000
O600        O  0.90018595  0.17965730  0.09885607    -0.72500
O601        O  0.96931115  0.11065706  0.17865718    -0.71900
O602        O  0.52158645  0.22082458  0.12580290    -0.72700
O603        O  0.91697105  0.10950475  0.15877172    -0.72100
O604        O  0.51994066  0.16641180  0.16507969    -0.72500
O605        O  0.50718893  0.04145634  0.16767699    -0.72400
O606        O  0.52969900  0.00744538  0.12695900    -0.72200
C607        C  0.53704292  0.12245012  0.05085573     0.79600
C608        C  0.90931737  0.22057896  0.08372779     0.80000
C609        C  0.91910706  0.00772369  0.08293431     0.79000
C610        C  0.93689584  0.10769381  0.18113154     0.79400
C611        C  0.53104050  0.20807620  0.15210019     0.80500
C612        C  0.52568179  0.00657776  0.15478544     0.79600
C613        C  0.88968242  0.10996687  0.21706733    -0.14000
C614        C  0.92269811  0.09952128  0.21072584    -0.29200
H615        H  0.87272078  0.12906826  0.20077066     0.15000
H616        H  0.94004386  0.08432593  0.22791431     0.15600
C617        C  0.55710412  0.12401586  0.02326594    -0.14000
C618        C  0.56317361  0.07817319  0.00867479    -0.29200
H619        H  0.56388267  0.16262296  0.01356144     0.15000
H620        H  0.55427779  0.04028243  0.01792349     0.15600
C621        C  0.81371369  0.15851180  0.29708604    -0.14000
C622        C  0.80074544  0.15819434  0.32439358    -0.29200
H623        H  0.80555924  0.19039829  0.28180895     0.15000
H624        H  0.80880413  0.12704428  0.34012566     0.15600
C625        C  0.63507691  0.17802123  0.39668946    -0.14000
C626        C  0.60942656  0.18708684  0.41560718    -0.29200
H627        H  0.64173127  0.13690238  0.39085172     0.15000
H628        H  0.60515082  0.22738215  0.42397142     0.15600
C629        C  0.79258541  0.30150010  0.46033553    -0.14000
C630        C  0.79885157  0.34723274  0.47476854    -0.29200
H631        H  0.79885687  0.26266883  0.47050209     0.15000
H632        H  0.79013806  0.38548075  0.46518040     0.15600
C633        C  0.88629685  0.29113683  0.04999672    -0.14000
C634        C  0.88271548  0.26051487  0.07436537    -0.29200
H635        H  0.90891942  0.28602117  0.03634986     0.15000
H636        H  0.85858146  0.26172249  0.08628305     0.15600
C637        C  0.64371985  0.31600549  0.24527638    -0.14000
C638        C  0.64762889  0.34951317  0.26803838    -0.29200
H639        H  0.65257489  0.27442543  0.24744285     0.15000
H640        H  0.63616354  0.38966983  0.26669778     0.15600
C641        C  0.55553831  0.24083168  0.16876152    -0.14000
C642        C  0.57049219  0.28444106  0.15738832    -0.29200
H643        H  0.56168105  0.22800593  0.19122198     0.15000
H644        H  0.56426747  0.29740499  0.13496772     0.15600
C645        C  0.65782608  0.48154166  0.17353674    -0.14000
C646        C  0.64329973  0.44053502  0.15975988    -0.29200
H647        H  0.65663013  0.48370705  0.19740559     0.15000
H648        H  0.64281947  0.43986408  0.13582692     0.15600
C649        C  0.79627088  0.43331446  0.06112259    -0.14000
C650        C  0.81021645  0.46494700  0.08157817    -0.29200
H651        H  0.76975271  0.44066955  0.05432005     0.15000
H652        H  0.83735069  0.46077617  0.08707301     0.15600
C653        C  0.82023260  0.48753336  0.32185173    -0.14000
C654        C  0.80193991  0.44940644  0.30846300    -0.29200
H655        H  0.82239671  0.48745961  0.34571614     0.15000
H656        H  0.80095931  0.44835596  0.28456425     0.15600
C657        C  0.83103730  0.59757070  0.23149056    -0.14000
C658        C  0.79739339  0.59691883  0.22511389    -0.29200
H659        H  0.84943559  0.61125157  0.21523468     0.15000
H660        H  0.77936444  0.58732689  0.24257503     0.15600
C661        C  0.63816895  0.49996065  0.41699437    -0.14000
C662        C  0.66901922  0.47502619  0.41974488    -0.29200
H663        H  0.62061252  0.48881855  0.39952378     0.15000
H664        H  0.68720608  0.48978916  0.43586525     0.15600
C665        C  0.65894912  0.57869930  0.01088244    -0.14000
C666        C  0.66538026  0.62455610  0.02521610    -0.29200
H667        H  0.66863444  0.54077430  0.02016922     0.15000
H668        H  0.65734357  0.66303929  0.01553985     0.15600
C669        C  0.89816098  0.64021963  0.31979269    -0.14000
C670        C  0.90731284  0.68813255  0.30843529    -0.29200
H671        H  0.90638494  0.62828830  0.34189205     0.15000
H672        H  0.89837057  0.70058237  0.28661414     0.15600
C673        C  0.57849908  0.67431889  0.43152048    -0.14000
C674        C  0.55042998  0.66558666  0.41507176    -0.29200
H675        H  0.58468242  0.71511308  0.43774026     0.15000
H676        H  0.54252259  0.62459230  0.41102293     0.15600
C677        C  0.89904356  0.98632111  0.33184789    -0.14000
C678        C  0.88967123  0.99242140  0.30341324    -0.29200
H679        H  0.89373381  0.01839980  0.34722155     0.15000
H680        H  0.89691748  0.96100729  0.28816271     0.15600
C681        C  0.53976872  0.96836623  0.42343757    -0.14000
C682        C  0.56247428  0.00311932  0.41199357    -0.29200
H683        H  0.52811501  0.97650127  0.44461690     0.15000
H684        H  0.57226014  0.99763640  0.38987175     0.15600
C685        C  0.89739715  0.96227346  0.07371425    -0.14000
C686        C  0.91146588  0.91831405  0.06145932    -0.29200
H687        H  0.86963925  0.96604910  0.07560671     0.15000
H688        H  0.93913826  0.91607749  0.05849182     0.15600
C689        C  0.90720888  0.83898215  0.47707742    -0.14000
C690        C  0.91129430  0.79524240  0.46025542    -0.29200
H691        H  0.91748091  0.87708294  0.46934449     0.15000
H692        H  0.90275435  0.75606819  0.46791059     0.15600
C693        C  0.82350222  0.77581576  0.05504603    -0.14000
C694        C  0.82567327  0.75548705  0.08263277    -0.29200
H695        H  0.80260535  0.76360092  0.04078008     0.15000
H696        H  0.84835736  0.76302484  0.09592135     0.15600
C697        C  0.54175947  0.96434430  0.17333365    -0.14000
C698        C  0.56539294  0.92856115  0.16400143    -0.29200
H699        H  0.53338937  0.96299241  0.19613118     0.15000
H700        H  0.57506426  0.93061489  0.14162638     0.15600
C701        C  0.54971547  0.82769544  0.25468605    -0.14000
C702        C  0.56147291  0.82248978  0.28242700    -0.29200
H703        H  0.52224716  0.83270606  0.25083589     0.15000
H704        H  0.58896795  0.82035997  0.28673230     0.15600
C705        C  0.65931976  0.77846214  0.16117961    -0.14000
C706        C  0.64421485  0.77626299  0.18786726    -0.29200
H707        H  0.65279842  0.81096797  0.14576661     0.15000
H708        H  0.65068793  0.74353781  0.20316181     0.15600
C709        C  0.61617424  0.84352069  0.68663029     0.82600
N710        N  0.60476221  0.89341201  0.67778719    -0.75700
C711        C  0.58154824  0.92107107  0.69435250     0.85100
N712        N  0.56933883  0.89810041  0.71934662    -0.75600
C713        C  0.58026889  0.84842869  0.72831548     0.85200
N714        N  0.60343452  0.82090019  0.71181966    -0.77300
C715        C  0.85759867  0.80728215  0.54523564     0.82600
N716        N  0.87244053  0.80086164  0.51830657    -0.75700
C717        C  0.89175220  0.84091075  0.50659029     0.85100
N718        N  0.89679242  0.88605352  0.52210765    -0.75600
C719        C  0.88304910  0.89264889  0.54912634     0.85200
N720        N  0.86297084  0.85330770  0.56061392    -0.77300
Zn721      Zn  0.96403096  0.86236789  0.88862209     1.49700
Zn722      Zn  0.96306857  0.73622186  0.87906328     1.49400
Zn723      Zn  0.96703227  0.81930350  0.82413281     1.49100
Zn724      Zn  0.53521968  0.80770679  0.87135122     1.49500
O725        O  0.98166285  0.80480171  0.86458344    -1.81700
O726        O  0.93428819  0.83454820  0.92053421    -0.72300
O727        O  0.93485174  0.70220547  0.84677857    -0.72200
O728        O  0.94240466  0.89112952  0.81949737    -0.71700
O729        O  0.93217246  0.74613538  0.91520834    -0.72400
O730        O  0.93618998  0.91744700  0.86563998    -0.72000
O731        O  0.93489641  0.76262327  0.81003450    -0.72500
O732        O  0.55993089  0.81378032  0.83175686    -0.71900
O733        O  0.00223604  0.68618474  0.89203457    -0.72700
O734        O  0.00765977  0.81764348  0.79736850    -0.72100
O735        O  0.55249019  0.73956507  0.89300164    -0.72500
O736        O  0.54820941  0.87415456  0.89473067    -0.72400
O737        O  0.00274812  0.90119946  0.90715308    -0.72200
C738        C  0.92368215  0.78868884  0.92889300     0.79600
C739        C  0.92524038  0.71804933  0.82106295     0.80000
C740        C  0.93091877  0.92444932  0.83821348     0.79000
C741        C  0.54879324  0.81380573  0.80528117     0.79400
C742        C  0.53875473  0.69402239  0.89822299     0.80500
C743        C  0.52930609  0.90916704  0.90735109     0.79600
C744        C  0.60562107  0.61148385  0.94376935     0.82600
N745        N  0.62186403  0.61708064  0.97027594    -0.75700
C746        C  0.64147863  0.57583105  0.98181070     0.85100
N747        N  0.64549140  0.53002313  0.96629296    -0.75600
C748        C  0.63014794  0.52438414  0.93960284     0.85200
N749        N  0.60986613  0.56499525  0.92855646    -0.77300
C750        C  0.86548024  0.60430880  0.79834105     0.82600
N751        N  0.85119724  0.61953760  0.77185209    -0.75700
C752        C  0.82536047  0.59006726  0.76020894     0.85100
N753        N  0.81360938  0.54670334  0.77530473    -0.75600
C754        C  0.82790828  0.53121514  0.80144257     0.85200
N755        N  0.85360588  0.56038103  0.81294821    -0.77300
Zn756      Zn  0.71994193  0.62713637  0.66126777     1.49700
Zn757      Zn  0.78117331  0.61873936  0.61472707     1.49400
Zn758      Zn  0.70647980  0.56920856  0.60162606     1.49100
Zn759      Zn  0.71366974  0.69800786  0.60281577     1.49500
O760        O  0.73070968  0.62866730  0.61977094    -1.82500
O761        O  0.76246128  0.62426921  0.68595434    -0.72300
O762        O  0.79266647  0.54998988  0.59149143    -0.72200
O763        O  0.67675078  0.52603339  0.62998332    -0.71700
O764        O  0.80584366  0.61354270  0.65493247    -0.72400
O765        O  0.69231712  0.56277673  0.67212577    -0.72000
O766        O  0.74029390  0.51821768  0.58390440    -0.72500
O767        O  0.68554476  0.68447702  0.56518510    -0.71900
O768        O  0.79980068  0.68471630  0.59300424    -0.72700
O769        O  0.67905104  0.59568410  0.56697341    -0.72100
O770        O  0.75511027  0.74237864  0.59107532    -0.72500
O771        O  0.68381072  0.74073927  0.63235624    -0.72400
O772        O  0.69132129  0.69054936  0.67288908    -0.72200
C773        C  0.79439582  0.61737830  0.68111585     0.79600
C774        C  0.77267860  0.51487268  0.58081264     0.80000
C775        C  0.67587518  0.52766609  0.65799311     0.79000
C776        C  0.67421899  0.64115941  0.55418558     0.79400
C777        C  0.78683042  0.73119152  0.58679576     0.80500
C778        C  0.67819116  0.73145419  0.65967915     0.79600
C779        C  0.59049180  0.32868998  0.69297560     0.82600
N780        N  0.60345910  0.32452186  0.72082324    -0.75700
C781        C  0.62646397  0.36081329  0.73040110     0.85100
N782        N  0.63656378  0.40080755  0.71206129    -0.75600
C783        C  0.62386415  0.40586051  0.68429033     0.85200
N784        N  0.60097869  0.36923912  0.67458265    -0.77300
C785        C  0.85189126  0.31356891  0.54135342     0.82600
N786        N  0.83562251  0.30858016  0.51492271    -0.75700
C787        C  0.81517174  0.34929463  0.50415694     0.85100
N788        N  0.81019823  0.39403734  0.52037218    -0.75600
C789        C  0.82550490  0.39901331  0.54713098     0.85200
N790        N  0.84686056  0.35896921  0.55740133    -0.77300
Zn791      Zn  0.73510298  0.30601152  0.82152185     1.49700
Zn792      Zn  0.74914000  0.36338917  0.88054012     1.49400
Zn793      Zn  0.67635517  0.30664907  0.87072332     1.49100
Zn794      Zn  0.74719467  0.23521261  0.87969155     1.49500
O795        O  0.72650036  0.30231131  0.86339746    -1.81700
O796        O  0.75976647  0.37242099  0.80927648    -0.72300
O797        O  0.71487240  0.40966869  0.90090229    -0.72200
O798        O  0.64939128  0.31210165  0.83194818    -0.71700
O799        O  0.77460098  0.40973892  0.85135909    -0.72400
O800        O  0.69151127  0.30861642  0.79908109    -0.72000
O801        O  0.66357380  0.37271439  0.89548751    -0.72500
O802        O  0.70869462  0.18506237  0.89192488    -0.71900
O803        O  0.78085729  0.33975612  0.91249095    -0.72700
O804        O  0.66165823  0.23787680  0.89169481    -0.72100
O805        O  0.77638570  0.25090391  0.91631349    -0.72500
O806        O  0.77799469  0.19847314  0.84918320    -0.72400
O807        O  0.76495455  0.24527465  0.80834198    -0.72200
C808        C  0.77492669  0.40881164  0.82336308     0.79600
C809        C  0.68275834  0.40935018  0.90566582     0.80000
C810        C  0.65981614  0.31271343  0.80539331     0.79000
C811        C  0.67674551  0.19263420  0.89700500     0.79400
C812        C  0.78770658  0.29539863  0.92574698     0.80500
C813        C  0.78143784  0.20743580  0.82157399     0.79600
C814        C  0.60973212  0.11035178  0.93931483     0.82600
N815        N  0.60355593  0.06496367  0.92366488    -0.75700
C816        C  0.58400570  0.02524195  0.93551547     0.85100
N817        N  0.57172752  0.03066515  0.96318760    -0.75600
C818        C  0.57771966  0.07534432  0.97889476     0.85200
N819        N  0.59624149  0.11577745  0.96673669    -0.77300
C820        C  0.85257300  0.10939083  0.79632643     0.82600
N821        N  0.86204000  0.13117085  0.76986782    -0.75700
C822        C  0.88607257  0.10584728  0.75325048     0.85100
N823        N  0.90100220  0.05940466  0.76324814    -0.75600
C824        C  0.89224580  0.03788647  0.78966890     0.85200
N825        N  0.86813161  0.06313061  0.80632306    -0.77300
Zn826      Zn  0.00137598  0.06354864  0.59492760     1.49700
Zn827      Zn  0.99623146  0.19211351  0.59681527     1.49400
Zn828      Zn  0.92797466  0.11888516  0.60862406     1.49100
Zn829      Zn  0.98922677  0.12181163  0.65524084     1.49500
O830        O  0.97839927  0.12444090  0.61356719    -1.81700
O831        O  0.52454133  0.10436233  0.55745553    -0.72300
O832        O  0.95557634  0.24023558  0.58499843    -0.72200
O833        O  0.91470172  0.05110348  0.58626738    -0.71700
O834        O  0.51278113  0.19200146  0.55550510    -0.72400
O835        O  0.96639591  0.01629457  0.57672136    -0.72000
O836        O  0.91005168  0.18662926  0.58721616    -0.72500
O837        O  0.94703108  0.12497409  0.68008710    -0.71900
O838        O  0.51902197  0.24815380  0.61906716    -0.72700
O839        O  0.90401331  0.11449067  0.64841421    -0.72100
O840        O  0.52626756  0.20166972  0.66101745    -0.72500
O841        O  0.53051429  0.06810774  0.66234697    -0.72400
O842        O  0.53580444  0.03391449  0.61768223    -0.72200
C843        C  0.52605115  0.14990360  0.54437795     0.79600
C844        C  0.92361522  0.23191049  0.58096597     0.80000
C845        C  0.93382512  0.01481669  0.57497429     0.79000
C846        C  0.91521636  0.11906410  0.67466528     0.79400
C847        C  0.53183630  0.24305876  0.64478970     0.80500
C848        C  0.54331034  0.03335713  0.64494440     0.79600
C849        C  0.89984576  0.13109936  0.72650210    -0.14000
C850        C  0.89140687  0.11335310  0.69968728    -0.29200
H851        H  0.92238783  0.15579549  0.72923874     0.15000
H852        H  0.86888112  0.08860612  0.69693574     0.15600
C853        C  0.54260106  0.15303812  0.51520385    -0.14000
C854        C  0.54942130  0.10754166  0.50062154    -0.29200
H855        H  0.54715087  0.19209435  0.50500682     0.15000
H856        H  0.54302809  0.06897657  0.51063429     0.15600
C857        C  0.82644792  0.13639793  0.81479427    -0.14000
C858        C  0.80583123  0.17572723  0.80377981    -0.29200
H859        H  0.82425596  0.12387978  0.83773082     0.15000
H860        H  0.80776333  0.18701037  0.78062938     0.15600
C861        C  0.65676674  0.14723990  0.90905366    -0.14000
C862        C  0.62936626  0.15522751  0.92640217    -0.29200
H863        H  0.66572496  0.10645532  0.90479993     0.15000
H864        H  0.62237790  0.19588195  0.93284855     0.15600
C865        C  0.80727845  0.29710725  0.95377802    -0.14000
C866        C  0.80921288  0.34402705  0.96810102    -0.29200
H867        H  0.81653412  0.25985588  0.96415242     0.15000
H868        H  0.79734993  0.38014888  0.95842440     0.15600
C869        C  0.87365587  0.26859200  0.55287805    -0.14000
C870        C  0.90184092  0.27680039  0.56932041    -0.29200
H871        H  0.86725162  0.22793742  0.54656403     0.15000
H872        H  0.90994122  0.31769278  0.57339128     0.15600
C873        C  0.64485183  0.35382525  0.75852427    -0.14000
C874        C  0.63544726  0.32111217  0.78076770    -0.29200
H875        H  0.66858383  0.37606998  0.76059792     0.15000
H876        H  0.61085117  0.30110449  0.78066622     0.15600
C877        C  0.55391634  0.28653975  0.65536268    -0.14000
C878        C  0.56693905  0.28679596  0.68277645    -0.29200
H879        H  0.55981798  0.31900005  0.63996201     0.15000
H880        H  0.56076032  0.25452233  0.69820575     0.15600
C881        C  0.65678144  0.48782043  0.67553858    -0.14000
C882        C  0.63736981  0.44847504  0.66443936    -0.29200
H883        H  0.66021017  0.49015673  0.69925590     0.15000
H884        H  0.63273620  0.44630095  0.64088448     0.15600
C885        C  0.81683012  0.44603424  0.56561873    -0.14000
C886        C  0.78568579  0.46998197  0.56286512    -0.29200
H887        H  0.83464910  0.45846798  0.58260370     0.15000
H888        H  0.76726842  0.45355248  0.54745421     0.15600
C889        C  0.81373735  0.48598586  0.81856687    -0.14000
C890        C  0.79215936  0.45116221  0.80630909    -0.29200
H891        H  0.82067591  0.48183456  0.84172984     0.15000
H892        H  0.78652750  0.45400387  0.78284458     0.15600
C893        C  0.80548463  0.60865967  0.73424271    -0.14000
C894        C  0.81816778  0.61151882  0.70675643    -0.29200
H895        H  0.77788773  0.61182372  0.73746672     0.15000
H896        H  0.84545199  0.60481936  0.70305962     0.15600
C897        C  0.63845234  0.47676305  0.92152417    -0.14000
C898        C  0.66920806  0.45191265  0.92481497    -0.29200
H899        H  0.62122025  0.46561137  0.90381057     0.15000
H900        H  0.68734064  0.46723091  0.94081664     0.15600
C901        C  0.65521292  0.59817656  0.50871803    -0.14000
C902        C  0.65614541  0.64269036  0.52532904    -0.29200
H903        H  0.66802776  0.56147974  0.51668902     0.15000
H904        H  0.64528233  0.68060736  0.51705349     0.15600
C905        C  0.89171365  0.63645336  0.81322586    -0.14000
C906        C  0.90180727  0.68486319  0.80351233    -0.29200
H907        H  0.90173224  0.62054705  0.83407355     0.15000
H908        H  0.89188983  0.70129136  0.78275409     0.15600
C909        C  0.58487483  0.65682308  0.93097799    -0.14000
C910        C  0.55975665  0.64915065  0.91101099    -0.29200
H911        H  0.58960347  0.69715014  0.93879824     0.15000
H912        H  0.55307063  0.60843150  0.90505600     0.15600
C913        C  0.91109547  0.97255689  0.82828335    -0.14000
C914        C  0.90996166  0.98812605  0.79987906    -0.29200
H915        H  0.89838992  0.99682434  0.84481092     0.15000
H916        H  0.92419008  0.96526663  0.78364392     0.15600
C917        C  0.54441246  0.95229184  0.92487340    -0.14000
C918        C  0.57345137  0.97837175  0.91793616    -0.29200
H919        H  0.52883274  0.96649828  0.94304342     0.15000
H920        H  0.58771607  0.96788134  0.89830441     0.15600
C921        C  0.91930609  0.97052248  0.55802894    -0.14000
C922        C  0.89202656  0.94110063  0.56616728    -0.29200
H923        H  0.93457835  0.95797941  0.53932099     0.15000
H924        H  0.87817874  0.95034375  0.58620140     0.15600
C925        C  0.89261080  0.83119281  0.96922785    -0.14000
C926        C  0.90258471  0.78551026  0.95598244    -0.29200
H927        H  0.89790860  0.86969824  0.95864473     0.15000
H928        H  0.89878106  0.74667779  0.96672049     0.15600
C929        C  0.83634157  0.76373013  0.55775641    -0.14000
C930        C  0.80893783  0.77413024  0.57479100    -0.29200
H931        H  0.84212755  0.72256585  0.55147322     0.15000
H932        H  0.80139629  0.81566628  0.57881164     0.15600
C933        C  0.56616449  0.98933636  0.65608966    -0.14000
C934        C  0.56634883  0.97329801  0.68443993    -0.29200
H935        H  0.57962783  0.96516957  0.63994995     0.15000
H936        H  0.55105457  0.99557267  0.70022486     0.15600
C937        C  0.56174407  0.82195415  0.75248197    -0.14000
C938        C  0.57296014  0.82216803  0.78055255    -0.29200
H939        H  0.53534564  0.81131589  0.74771703     0.15000
H940        H  0.59898358  0.83465679  0.78543186     0.15600
C941        C  0.65533323  0.76643009  0.67736862    -0.14000
C942        C  0.64057121  0.81289983  0.66782800    -0.29200
H943        H  0.65010334  0.75222529  0.69962673     0.15000
H944        H  0.64619904  0.82847157  0.64593178     0.15600
loop_ 
_geom_bond_atom_site_label_1 
_geom_bond_atom_site_label_2 
_geom_bond_distance 
_geom_bond_site_symmetry_2 
_ccdc_geom_bond_type 
C1            N2   1.361       .  A
C1            N6   1.369       .  A
C1          C234   1.484       .  S
N2            C3   1.358       .  A
C3            N4   1.352       .  A
C3          C226   1.471       .  S
N4            C5   1.356       .  A
C5            N6   1.362       .  A
C5          C229   1.488       .  S
C7            N8   1.368       .  A
C7           N12   1.363       .  A
C7          C221   1.480       .  S
N8            C9   1.363       .  A
C9           N10   1.353       .  A
C9          C453   1.477   1_554  S
N10          C11   1.353       .  A
C11          N12   1.356       .  A
C11         C214   1.477       .  S
Zn13         O17   1.943       .  S
Zn13         O18   1.979       .  S
Zn13         O22   2.013       .  S
Zn13         O29   1.984       .  S
Zn14         O17   1.975       .  S
Zn14         O19   2.039       .  S
Zn14         O21   2.063       .  S
Zn14         O25   2.028       .  S
Zn15         O17   1.948       .  S
Zn15         O20   2.040       .  S
Zn15         O23   2.004       .  S
Zn15         O26   2.021       .  S
Zn16        O489   1.995   1_455  S
Zn16         O24   2.066       .  S
Zn16         O27   2.049       .  S
Zn16         O28   2.054       .  S
O17        Zn488   1.980       .  S
O18          C30   1.270       .  A
O19          C31   1.277       .  A
O20          C32   1.278       .  A
O21          C30   1.277       .  A
O22          C32   1.270       .  A
O23          C31   1.271       .  A
O24          C33   1.278       .  A
O25         C506   1.275       .  A
O26         C505   1.277       .  A
O27          C34   1.277       .  A
O28          C35   1.277       .  A
O29         C507   1.269       .  A
C30         C218   1.484       .  S
C31         C198   1.477       .  S
C32         C205   1.484       .  S
C33         C230   1.477       .  S
C33         O498   1.272   1_455  A
C34         C202   1.482       .  S
C34         O497   1.275       .  A
C35         C209   1.468       .  S
C35         O501   1.269       .  A
C36          N37   1.365       .  A
C36          N41   1.365       .  A
C36         C201   1.483       .  S
N37          C38   1.362       .  A
C38          N39   1.356       .  A
C38         C429   1.483       .  S
N39          C40   1.355       .  A
C40          N41   1.361       .  A
C40         C189   1.474       .  S
C42          N43   1.364       .  A
C42          N47   1.357       .  A
C42         C197   1.478       .  S
N43          C44   1.360       .  A
C44          N45   1.361       .  A
C44         C185   1.483       .  S
N45          C46   1.357       .  A
C46          N47   1.355       .  A
C46         C181   1.476       .  S
Zn48         O52   1.932       .  S
Zn48         O53   1.974       .  S
Zn48         O57   1.977       .  S
Zn48         O64   1.994       .  S
Zn49         O52   1.987       .  S
Zn49         O54   2.042       .  S
Zn49         O56   2.070       .  S
Zn49         O60   2.038       .  S
Zn50         O52   1.962       .  S
Zn50         O55   2.033       .  S
Zn50         O58   2.017       .  S
Zn50         O61   1.994       .  S
Zn51         O52   1.978       .  S
Zn51         O59   2.061       .  S
Zn51         O62   2.033       .  S
Zn51         O63   2.063       .  S
O53          C65   1.268       .  A
O54          C66   1.274       .  A
O55          C67   1.273       .  A
O56          C65   1.278       .  A
O57          C67   1.267       .  A
O58          C66   1.274       .  A
O59          C68   1.277       .  A
O60          C69   1.278       .  A
O61          C68   1.273       .  A
O62          C69   1.277       .  A
O63          C70   1.279       .  A
O64          C70   1.269       .  A
C65         C186   1.474       .  S
C66         C178   1.484       .  S
C67         C173   1.467       .  S
C68         C194   1.487       .  S
C69         C222   1.475       .  S
C70         C233   1.481       .  S
C71          N72   1.361       .  A
C71          N76   1.365       .  A
C71         C170   1.472       .  S
N72          C73   1.356       .  A
C73          N74   1.350       .  A
C73         C165   1.468       .  S
N74          C75   1.355       .  A
C75          N76   1.357       .  A
C75         C174   1.474       .  S
C77          N78   1.363       .  A
C77          N82   1.364       .  A
C77         C161   1.483       .  S
N78          C79   1.353       .  A
C79          N80   1.357       .  A
C79         C394   1.475   1_554  S
N80          C81   1.357       .  A
C81          N82   1.364       .  A
C81         C177   1.479       .  S
Zn83         O87   1.949       .  S
Zn83         O88   2.028       .  S
Zn83         O92   2.002       .  S
Zn83         O99   2.032       .  S
Zn84         O87   1.944       .  S
Zn84         O89   2.010       .  S
Zn84         O91   2.008       .  S
Zn84         O95   1.987       .  S
Zn85         O87   1.976       .  S
Zn85         O90   2.036       .  S
Zn85         O93   2.054       .  S
Zn85         O96   2.029       .  S
Zn86         O87   1.967       .  S
Zn86         O94   2.010       .  S
Zn86         O97   2.033       .  S
Zn86         O98   2.039       .  S
O88         C100   1.273       .  A
O89         C101   1.273       .  A
O90         C102   1.276       .  A
O91         C100   1.272       .  A
O92         C102   1.275       .  A
O93         C101   1.276       .  A
O94         C103   1.272       .  A
O95         C104   1.270       .  A
O96         C103   1.275       .  A
O97         C104   1.276       .  A
O98         C105   1.274       .  A
O99         C105   1.277       .  A
C100        C182   1.477       .  S
C101        C190   1.487       .  S
C102        C166   1.475       .  S
C103        C153   1.468       .  S
C104        C157   1.469       .  S
C105        C150   1.489       .  S
C106        N107   1.362       .  A
C106        N111   1.363       .  A
C106        C154   1.474       .  S
N107        C108   1.355       .  A
C108        N109   1.357       .  A
C108        C210   1.482   1_545  S
N109        C110   1.354       .  A
C110        N111   1.360       .  A
C110        C382   1.476       .  S
C112        N113   1.358       .  A
C112        N117   1.370       .  A
C112        C149   1.482       .  S
N113        C114   1.353       .  A
C114        N115   1.349       .  A
C114        C141   1.465       .  S
N115        C116   1.353       .  A
C116        N117   1.369       .  A
C116        C206   1.477   1_545  S
Zn118       O122   1.940       .  S
Zn118       O127   2.010   1_545  S
Zn118       O595   1.991       .  S
Zn118       O606   2.026       .  S
Zn119       O122   1.967       .  S
Zn119       O124   2.064       .  S
Zn119       O598   2.047       .  S
Zn119       O602   2.065       .  S
Zn120       O122   1.950       .  S
Zn120       O125   2.026       .  S
Zn120       O128   1.993       .  S
Zn120       O131   2.024       .  S
Zn121       O122   1.916       .  S
Zn121       O129   1.986       .  S
Zn121       O604   1.973       .  S
Zn121       O605   1.983       .  S
O123       Zn590   2.011   1_455  S
O123        C135   1.276       .  A
O124        C136   1.281       .  A
O125        C137   1.273   1_545  A
O126       Zn591   2.019   1_455  S
O126        C135   1.272       .  A
O127        C137   1.271       .  A
O128        C136   1.272       .  A
O129        C138   1.268       .  A
O130       Zn591   2.018   1_455  S
O130        C139   1.272       .  A
O131        C138   1.273       .  A
O132       Zn593   2.005       .  S
O132        C139   1.273       .  A
O133       Zn593   2.001       .  S
O133        C140   1.271       .  A
O134       Zn590   2.025   1_455  S
O134        C140   1.271       .  A
C135        C145   1.479       .  S
C136        C162   1.470       .  S
C137        C213   1.471       .  S
C138        C142   1.461       .  S
C139        C169   1.474       .  S
C140        C225   1.478   1_545  S
C141        C142   1.337       .  D
C141        H143   1.088       .  S
C142        H144   1.087       .  S
C145        C146   1.340   1_554  D
C145        H147   1.086   1_554  S
C146        C346   1.468       .  S
C146        H148   1.087   1_556  S
C149        C150   1.345       .  D
C149        H151   1.087       .  S
C150        H152   1.086       .  S
C153        C154   1.341       .  D
C153        H155   1.087       .  S
C154        H156   1.087       .  S
C157        C158   1.341       .  D
C157        H159   1.087       .  S
C158        C315   1.475       .  S
C158        H160   1.086       .  S
C161        C162   1.343       .  D
C161        H163   1.086       .  S
C162        H164   1.087       .  S
C165        C166   1.342       .  D
C165        H167   1.087       .  S
C166        H168   1.086       .  S
C169        C170   1.343       .  D
C169        H171   1.086       .  S
C170        H172   1.086       .  S
C173        C174   1.342       .  D
C173        H175   1.088       .  S
C174        H176   1.086       .  S
C177        C178   1.345       .  D
C177        H179   1.087       .  S
C178        H180   1.086       .  S
C181        C182   1.345       .  D
C181        H183   1.086       .  S
C182        H184   1.086       .  S
C185        C186   1.342       .  D
C185        H187   1.086       .  S
C186        H188   1.088       .  S
C189        C190   1.347       .  D
C189        H191   1.086       .  S
C190        H192   1.087       .  S
C193        C274   1.477   1_554  S
C193        C194   1.348       .  D
C193        H195   1.087       .  S
C194        H196   1.086       .  S
C197        C198   1.341       .  D
C197        H199   1.087       .  S
C198        H200   1.087       .  S
C201        C202   1.346       .  D
C201        H203   1.086       .  S
C202        H204   1.087       .  S
C205        C206   1.340       .  D
C205        H207   1.086   1_565  S
C206        H208   1.087       .  S
C209        C210   1.342       .  D
C209        H211   1.087       .  S
C210        H212   1.086       .  S
C213        C214   1.345       .  D
C213        H215   1.087       .  S
C214        H216   1.086       .  S
C217        C245   1.474       .  S
C217        C218   1.349       .  D
C217        H219   1.087       .  S
C218        H220   1.086       .  S
C221        C222   1.346       .  D
C221        H223   1.087       .  S
C222        H224   1.087       .  S
C225        C226   1.343       .  D
C225        H227   1.087       .  S
C226        H228   1.087       .  S
C229        C230   1.348       .  D
C229        H231   1.086       .  S
C230        H232   1.087       .  S
C233        C234   1.342       .  D
C233        H235   1.087       .  S
C234        H236   1.086       .  S
C237        N238   1.365       .  A
C237        N242   1.365       .  A
C237        C470   1.480       .  S
N238        C239   1.358       .  A
C239        N240   1.353       .  A
C239        C462   1.479       .  S
N240        C241   1.349       .  A
C241        N242   1.360       .  A
C241        C465   1.470       .  S
C243        N244   1.362       .  A
C243        N248   1.366       .  A
C243        C457   1.473       .  S
N244        C245   1.357       .  A
C245        N246   1.354       .  A
N246        C247   1.357       .  A
C247        N248   1.362       .  A
C247        C450   1.489       .  S
Zn249       O253   1.958       .  S
Zn249       O254   2.010       .  S
Zn249       O258   2.045       .  S
Zn249       O265   2.004       .  S
Zn250       O253   1.969       .  S
Zn250       O255   2.052       .  S
Zn250       O257   2.054       .  S
Zn250       O261   2.035       .  S
Zn251       O253   1.940       .  S
Zn251       O256   1.993       .  S
Zn251       O259   1.999       .  S
Zn251       O262   1.997       .  S
Zn252       O725   1.973   1_455  S
Zn252       O260   2.037       .  S
Zn252       O263   2.022       .  S
Zn252       O264   2.042       .  S
O253       Zn724   1.981       .  S
O254        C266   1.275       .  A
O255        C267   1.279       .  A
O256        C268   1.270       .  A
O257        C266   1.276       .  A
O258        C268   1.275       .  A
O259        C267   1.270       .  A
O260        C269   1.274       .  A
O261        C742   1.277       .  A
O262        C741   1.272       .  A
O263        C270   1.276       .  A
O264        C271   1.274       .  A
O265        C743   1.272       .  A
C266        C454   1.489       .  S
C267        C434   1.480       .  S
C268        C441   1.473       .  S
C269        C466   1.481       .  S
C269        O734   1.274       .  A
C270        C438   1.473       .  S
C270        O733   1.275       .  A
C271        C445   1.465       .  S
C271        O737   1.271       .  A
C272        N273   1.364       .  A
C272        N277   1.362       .  A
C272        C437   1.475       .  S
N273        C274   1.361       .  A
C274        N275   1.355       .  A
N275        C276   1.356       .  A
C276        N277   1.356       .  A
C276        C425   1.481       .  S
C278        N279   1.366       .  A
C278        N283   1.355       .  A
C278        C433   1.479       .  S
N279        C280   1.364       .  A
C280        N281   1.360       .  A
C280        C421   1.483       .  S
N281        C282   1.355       .  A
C282        N283   1.353       .  A
C282        C417   1.469       .  S
Zn284       O288   1.958       .  S
Zn284       O289   2.010       .  S
Zn284       O293   2.016       .  S
Zn284       O300   2.018       .  S
Zn285       O288   1.990       .  S
Zn285       O290   2.061       .  S
Zn285       O292   2.047       .  S
Zn285       O296   2.036       .  S
Zn286       O288   1.957       .  S
Zn286       O291   2.021       .  S
Zn286       O294   1.994       .  S
Zn286       O297   2.020       .  S
Zn287       O288   1.970       .  S
Zn287       O295   2.050       .  S
Zn287       O298   2.028       .  S
Zn287       O299   2.034       .  S
O289        C301   1.272       .  A
O290        C302   1.277       .  A
O291        C303   1.272       .  A
O292        C301   1.275       .  A
O293        C303   1.273       .  A
O294        C302   1.273       .  A
O295        C304   1.275       .  A
O296        C305   1.276       .  A
O297        C304   1.274       .  A
O298        C305   1.277       .  A
O299        C306   1.276       .  A
O300        C306   1.275       .  A
C301        C422   1.477       .  S
C302        C414   1.485       .  S
C303        C409   1.477       .  S
C304        C430   1.488       .  S
C305        C458   1.478       .  S
C306        C469   1.480       .  S
C307        N308   1.364       .  A
C307        N312   1.360       .  A
C307        C406   1.483       .  S
N308        C309   1.358       .  A
C309        N310   1.356       .  A
C309        C401   1.474       .  S
N310        C311   1.357       .  A
C311        N312   1.361       .  A
C311        C410   1.475       .  S
C313        N314   1.358       .  A
C313        N318   1.366       .  A
C313        C397   1.469       .  S
N314        C315   1.353       .  A
C315        N316   1.355       .  A
N316        C317   1.355       .  A
C317        N318   1.363       .  A
C317        C413   1.476       .  S
Zn319       O323   1.960       .  S
Zn319       O324   2.037       .  S
Zn319       O328   2.038       .  S
Zn319       O335   2.044       .  S
Zn320       O323   1.922       .  S
Zn320       O325   1.981       .  S
Zn320       O327   1.982       .  S
Zn320       O331   1.973       .  S
Zn321       O323   1.962       .  S
Zn321       O326   2.033       .  S
Zn321       O329   2.056       .  S
Zn321       O332   2.044       .  S
Zn322       O323   1.947       .  S
Zn322       O330   2.020       .  S
Zn322       O333   2.063       .  S
Zn322       O334   2.020       .  S
O324        C336   1.273       .  A
O325        C337   1.268       .  A
O326        C338   1.276       .  A
O327        C336   1.270       .  A
O328        C338   1.278       .  A
O329        C337   1.276       .  A
O330        C339   1.275       .  A
O331        C340   1.267       .  A
O332        C339   1.278       .  A
O333        C340   1.278       .  A
O334        C341   1.275       .  A
O335        C341   1.279       .  A
C336        C418   1.474       .  S
C337        C426   1.470       .  S
C338        C402   1.480       .  S
C339        C389   1.478       .  S
C340        C393   1.473       .  S
C341        C386   1.481       .  S
C342        N343   1.368       .  A
C342        N347   1.363       .  A
C342        C390   1.476       .  S
N343        C344   1.362       .  A
C344        N345   1.352       .  A
C344        C446   1.486   1_545  S
N345        C346   1.347       .  A
C346        N347   1.358       .  A
C348        N349   1.362       .  A
C348        N353   1.366       .  A
C348        C385   1.482       .  S
N349        C350   1.359       .  A
C350        N351   1.351       .  A
C350        C377   1.471       .  S
N351        C352   1.356       .  A
C352        N353   1.361       .  A
C352        C442   1.483       .  S
Zn354       O358   1.935       .  S
Zn354       O831   1.986       .  S
Zn354       O363   1.994       .  S
Zn354       O842   2.003       .  S
Zn355       O358   1.967       .  S
Zn355       O360   2.010       .  S
Zn355       O834   2.032       .  S
Zn355       O838   2.001       .  S
Zn356       O358   1.977       .  S
Zn356       O361   2.068       .  S
Zn356       O364   2.033       .  S
Zn356       O367   2.023       .  S
Zn357       O358   1.962       .  S
Zn357       O365   2.024       .  S
Zn357       O840   2.038       .  S
Zn357       O841   2.047       .  S
O359       Zn826   2.000       .  S
O359        C371   1.273       .  A
O360        C372   1.272       .  A
O361        C373   1.278       .  A
O362       Zn827   2.052   1_455  S
O362        C371   1.276       .  A
O363        C373   1.270       .  A
O364        C372   1.277       .  A
O365        C374   1.277       .  A
O366       Zn827   2.057   1_455  S
O366        C375   1.277       .  A
O367        C374   1.274       .  A
O368       Zn829   1.990   1_455  S
O368        C375   1.269       .  A
O369       Zn829   1.997   1_455  S
O369        C376   1.271       .  A
O370       Zn826   2.029       .  S
O370        C376   1.273       .  A
C371        C381   1.485       .  S
C372        C398   1.475       .  S
C373        C449   1.478   1_545  S
C374        C378   1.477       .  S
C375        C405   1.478       .  S
C376        C461   1.470   1_545  S
C377        C378   1.340       .  D
C377        H379   1.087       .  S
C378        H380   1.087       .  S
C381        C382   1.347       .  D
C381        H383   1.086       .  S
C382        H384   1.087       .  S
C385        C386   1.345       .  D
C385        H387   1.086       .  S
C386        H388   1.086       .  S
C389        C390   1.342       .  D
C389        H391   1.087       .  S
C390        H392   1.086       .  S
C393        C394   1.338       .  D
C393        H395   1.089       .  S
C394        H396   1.086       .  S
C397        C398   1.339       .  D
C397        H399   1.087       .  S
C398        H400   1.087       .  S
C401        C402   1.342       .  D
C401        H403   1.086       .  S
C402        H404   1.087       .  S
C405        C406   1.343       .  D
C405        H407   1.086       .  S
C406        H408   1.086       .  S
C409        C410   1.344       .  D
C409        H411   1.087       .  S
C410        H412   1.087       .  S
C413        C414   1.346       .  D
C413        H415   1.088       .  S
C414        H416   1.086       .  S
C417        C418   1.344       .  D
C417        H419   1.087       .  S
C418        H420   1.086       .  S
C421        C422   1.347       .  D
C421        H423   1.086       .  S
C422        H424   1.087       .  S
C425        C426   1.342       .  D
C425        H427   1.086       .  S
C426        H428   1.087       .  S
C429        C430   1.347       .  D
C429        H431   1.086       .  S
C430        H432   1.086       .  S
C433        C434   1.340       .  D
C433        H435   1.087       .  S
C434        H436   1.086       .  S
C437        C438   1.345       .  D
C437        H439   1.087       .  S
C438        H440   1.087       .  S
C441        C442   1.346   1_565  D
C441        H443   1.088       .  S
C442        H444   1.086       .  S
C445        C446   1.349       .  D
C445        H447   1.086       .  S
C446        H448   1.086       .  S
C449        C450   1.347       .  D
C449        H451   1.087       .  S
C450        H452   1.086       .  S
C453        C454   1.346       .  D
C453        H455   1.087       .  S
C454        H456   1.086       .  S
C457        C458   1.342       .  D
C457        H459   1.086       .  S
C458        H460   1.087       .  S
C461        C462   1.346       .  D
C461        H463   1.087       .  S
C462        H464   1.086       .  S
C465        C466   1.342       .  D
C465        H467   1.087       .  S
C466        H468   1.086       .  S
C469        C470   1.348       .  D
C469        H471   1.086       .  S
C470        H472   1.086       .  S
C473        N474   1.364       .  A
C473        N478   1.368       .  A
C473        C706   1.480       .  S
N474        C475   1.356       .  A
C475        N476   1.352       .  A
C475        C698   1.475       .  S
N476        C477   1.347       .  A
C477        N478   1.361       .  A
C477        C701   1.470       .  S
C479        N480   1.365       .  A
C479        N484   1.369       .  A
C479        C693   1.481       .  S
N480        C481   1.359       .  A
C481        N482   1.350       .  A
C481        C925   1.468   1_554  S
N482        C483   1.350       .  A
C483        N484   1.363       .  A
C483        C686   1.472       .  S
Zn485       O489   1.947       .  S
Zn485       O490   1.986       .  S
Zn485       O494   2.042       .  S
Zn485       O501   1.978   1_655  S
Zn486       O489   1.979       .  S
Zn486       O491   2.020       .  S
Zn486       O493   2.057       .  S
Zn486       O497   2.034   1_655  S
Zn487       O489   1.948       .  S
Zn487       O492   2.034       .  S
Zn487       O495   2.010       .  S
Zn487       O498   2.000       .  S
Zn488       O496   2.029       .  S
Zn488       O499   2.028       .  S
Zn488       O500   2.045       .  S
O490        C502   1.272       .  A
O491        C503   1.275       .  A
O492        C504   1.275       .  A
O493        C502   1.275       .  A
O494        C504   1.272       .  A
O495        C503   1.273       .  A
O496        C505   1.273       .  A
O499        C506   1.276       .  A
O500        C507   1.274       .  A
C502        C690   1.487       .  S
C503        C670   1.473       .  S
C504        C677   1.493       .  S
C505        C702   1.484       .  S
C506        C674   1.476       .  S
C507        C681   1.465       .  S
C508        N509   1.360       .  A
C508        N513   1.364       .  A
C508        C673   1.475       .  S
N509        C510   1.358       .  A
C510        N511   1.358       .  A
C510        C901   1.478       .  S
N511        C512   1.360       .  A
C512        N513   1.360       .  A
C512        C661   1.488       .  S
C514        N515   1.361       .  A
C514        N519   1.359       .  A
C514        C669   1.475       .  S
N515        C516   1.355       .  A
C516        N517   1.359       .  A
C516        C657   1.474       .  S
N517        C518   1.359       .  A
C518        N519   1.358       .  A
C518        C653   1.478       .  S
Zn520       O524   1.953       .  S
Zn520       O525   1.983       .  S
Zn520       O529   1.987       .  S
Zn520       O536   1.997       .  S
Zn521       O524   1.980       .  S
Zn521       O526   2.044       .  S
Zn521       O528   2.046       .  S
Zn521       O532   2.035       .  S
Zn522       O524   1.960       .  S
Zn522       O527   2.031       .  S
Zn522       O530   2.014       .  S
Zn522       O533   2.030       .  S
Zn523       O524   1.972       .  S
Zn523       O531   2.053       .  S
Zn523       O534   2.045       .  S
Zn523       O535   2.050       .  S
O525        C537   1.268       .  A
O526        C538   1.275       .  A
O527        C539   1.276       .  A
O528        C537   1.275       .  A
O529        C539   1.267       .  A
O530        C538   1.275       .  A
O531        C540   1.276       .  A
O532        C541   1.276       .  A
O533        C540   1.276       .  A
O534        C541   1.278       .  A
O535        C542   1.277       .  A
O536        C542   1.272       .  A
C537        C658   1.472       .  S
C538        C650   1.485       .  S
C539        C645   1.472       .  S
C540        C666   1.490       .  S
C541        C694   1.481       .  S
C542        C705   1.480       .  S
C543        N544   1.366       .  A
C543        N548   1.352       .  A
C543        C642   1.478       .  S
N544        C545   1.364       .  A
C545        N546   1.362       .  A
C545        C637   1.486       .  S
N546        C547   1.362       .  A
C547        N548   1.351       .  A
C547        C646   1.471       .  S
C549        N550   1.361       .  A
C549        N554   1.366       .  A
C549        C633   1.472       .  S
N550        C551   1.356   1_554  A
C551        N552   1.352   1_556  A
C551        C866   1.468       .  S
N552        C553   1.353       .  A
C553        N554   1.363       .  A
C553        C649   1.475       .  S
Zn555       O559   1.960       .  S
Zn555       O560   2.027       .  S
Zn555       O564   2.049       .  S
Zn555       O571   2.050       .  S
Zn556       O559   1.947       .  S
Zn556       O561   1.999       .  S
Zn556       O563   2.017       .  S
Zn556       O567   2.007       .  S
Zn557       O559   1.978       .  S
Zn557       O562   2.057       .  S
Zn557       O565   2.071       .  S
Zn557       O568   2.055       .  S
Zn558       O559   1.959       .  S
Zn558       O566   1.999       .  S
Zn558       O569   2.038       .  S
Zn558       O570   2.021       .  S
O560        C572   1.275       .  A
O561        C573   1.270       .  A
O562        C574   1.278       .  A
O563        C572   1.275       .  A
O564        C574   1.278       .  A
O565        C573   1.278       .  A
O566        C575   1.273       .  A
O567        C576   1.273       .  A
O568        C575   1.280       .  A
O569        C576   1.274       .  A
O570        C577   1.271       .  A
O571        C577   1.279       .  A
C572        C654   1.477       .  S
C573        C662   1.481       .  S
C574        C638   1.486       .  S
C575        C625   1.470       .  S
C576        C629   1.481       .  S
C577        C622   1.489       .  S
C578        N579   1.367       .  A
C578        N583   1.362       .  A
C578        C626   1.476       .  S
N579        C580   1.360       .  A
C580        N581   1.354       .  A
C580        C682   1.484       .  S
N581        C582   1.350       .  A
C582        N583   1.358       .  A
C582        C854   1.468       .  S
C584        N585   1.357       .  A
C584        N589   1.373       .  A
C584        C621   1.483       .  S
N585        C586   1.350       .  A
C586        N587   1.352       .  A
C586        C613   1.469       .  S
N587        C588   1.355       .  A
C588        N589   1.371       .  A
C588        C678   1.481   1_545  S
Zn590       O594   1.955       .  S
Zn590       O599   2.020       .  S
Zn591       O594   1.971       .  S
Zn591       O596   2.024       .  S
Zn592       O594   1.968       .  S
Zn592       O597   2.041       .  S
Zn592       O600   2.027       .  S
Zn592       O603   2.016       .  S
Zn593       O594   1.950   1_455  S
Zn593       O601   2.000   1_455  S
O595        C607   1.274       .  A
O596        C608   1.275       .  A
O597        C609   1.275       .  A
O598        C607   1.276       .  A
O599        C609   1.276       .  A
O600        C608   1.274       .  A
O601        C610   1.270       .  A
O602        C611   1.280       .  A
O603        C610   1.273       .  A
O604        C611   1.266       .  A
O605        C612   1.270       .  A
O606        C612   1.274       .  A
C607        C617   1.481       .  S
C608        C634   1.477       .  S
C609        C685   1.486   1_545  S
C610        C614   1.468       .  S
C611        C641   1.477       .  S
C612        C697   1.464   1_545  S
C613        C614   1.340       .  D
C613        H615   1.086       .  S
C614        H616   1.087       .  S
C617        C618   1.345       .  D
C617        H619   1.086       .  S
C618        C818   1.471   1_554  S
C618        H620   1.087       .  S
C621        C622   1.342       .  D
C621        H623   1.086       .  S
C622        H624   1.085       .  S
C625        C626   1.340       .  D
C625        H627   1.087       .  S
C626        H628   1.087       .  S
C629        C630   1.346       .  D
C629        H631   1.086       .  S
C630        C787   1.476       .  S
C630        H632   1.087       .  S
C633        C634   1.342       .  D
C633        H635   1.087       .  S
C634        H636   1.087       .  S
C637        C638   1.347       .  D
C637        H639   1.086       .  S
C638        H640   1.087       .  S
C641        C642   1.336       .  D
C641        H643   1.087       .  S
C642        H644   1.087       .  S
C645        C646   1.336       .  D
C645        H647   1.087       .  S
C646        H648   1.087       .  S
C649        C650   1.344       .  D
C649        H651   1.087       .  S
C650        H652   1.086       .  S
C653        C654   1.345       .  D
C653        H655   1.086       .  S
C654        H656   1.086       .  S
C657        C658   1.339       .  D
C657        H659   1.086       .  S
C658        H660   1.088       .  S
C661        C662   1.346       .  D
C661        H663   1.086       .  S
C662        H664   1.087       .  S
C665        C746   1.484   1_554  S
C665        C666   1.348       .  D
C665        H667   1.086       .  S
C666        H668   1.086       .  S
C669        C670   1.344       .  D
C669        H671   1.086       .  S
C670        H672   1.086       .  S
C673        C674   1.342       .  D
C673        H675   1.087       .  S
C674        H676   1.087       .  S
C677        C678   1.345       .  D
C677        H679   1.086   1_565  S
C678        H680   1.087       .  S
C681        C682   1.346   1_565  D
C681        H683   1.086       .  S
C682        H684   1.086   1_545  S
C685        C686   1.344       .  D
C685        H687   1.087       .  S
C686        H688   1.087       .  S
C689        C717   1.473       .  S
C689        C690   1.346       .  D
C689        H691   1.087       .  S
C690        H692   1.086       .  S
C693        C694   1.344       .  D
C693        H695   1.087       .  S
C694        H696   1.087       .  S
C697        C698   1.344       .  D
C697        H699   1.087       .  S
C698        H700   1.086       .  S
C701        C702   1.341       .  D
C701        H703   1.087       .  S
C702        H704   1.087       .  S
C705        C706   1.351       .  D
C705        H707   1.086       .  S
C706        H708   1.086       .  S
C709        N710   1.363       .  A
C709        N714   1.366       .  A
C709        C942   1.489       .  S
N710        C711   1.363       .  A
C711        N712   1.354       .  A
C711        C934   1.479       .  S
N712        C713   1.354       .  A
C713        N714   1.359       .  A
C713        C937   1.469       .  S
C715        N716   1.366       .  A
C715        N720   1.368       .  A
C715        C929   1.481       .  S
N716        C717   1.360       .  A
C717        N718   1.351       .  A
N718        C719   1.353       .  A
C719        N720   1.361       .  A
C719        C922   1.487       .  S
Zn721       O725   1.933       .  S
Zn721       O726   1.983       .  S
Zn721       O730   2.006       .  S
Zn721       O737   1.992   1_655  S
Zn722       O725   1.967       .  S
Zn722       O727   2.030       .  S
Zn722       O729   2.056       .  S
Zn722       O733   2.029   1_655  S
Zn723       O725   1.946       .  S
Zn723       O728   2.019       .  S
Zn723       O731   2.009       .  S
Zn723       O734   2.000   1_655  S
Zn724       O732   2.049       .  S
Zn724       O735   2.045       .  S
Zn724       O736   2.046       .  S
O726        C738   1.271       .  A
O727        C739   1.278       .  A
O728        C740   1.274       .  A
O729        C738   1.275       .  A
O730        C740   1.269       .  A
O731        C739   1.271       .  A
O732        C741   1.275       .  A
O735        C742   1.279       .  A
O736        C743   1.275       .  A
C738        C926   1.485       .  S
C739        C906   1.478       .  S
C740        C913   1.474       .  S
C741        C938   1.483       .  S
C742        C910   1.480       .  S
C743        C917   1.473       .  S
C744        N745   1.366       .  A
C744        N749   1.364       .  A
C744        C909   1.483       .  S
N745        C746   1.363       .  A
C746        N747   1.356       .  A
N747        C748   1.358       .  A
C748        N749   1.358       .  A
C748        C897   1.483       .  S
C750        N751   1.367       .  A
C750        N755   1.357       .  A
C750        C905   1.474       .  S
N751        C752   1.363       .  A
C752        N753   1.355       .  A
C752        C893   1.470       .  S
N753        C754   1.355       .  A
C754        N755   1.352       .  A
C754        C889   1.473       .  S
Zn756       O760   1.933       .  S
Zn756       O761   1.992       .  S
Zn756       O765   1.998       .  S
Zn756       O772   1.994       .  S
Zn757       O760   1.990       .  S
Zn757       O762   2.066       .  S
Zn757       O764   2.058       .  S
Zn757       O768   2.044       .  S
Zn758       O760   1.956       .  S
Zn758       O763   2.040       .  S
Zn758       O766   1.994       .  S
Zn758       O769   1.992       .  S
Zn759       O760   1.978       .  S
Zn759       O767   2.059       .  S
Zn759       O770   2.037       .  S
Zn759       O771   2.074       .  S
O761        C773   1.273       .  A
O762        C774   1.278       .  A
O763        C775   1.274       .  A
O764        C773   1.277       .  A
O765        C775   1.270       .  A
O766        C774   1.270       .  A
O767        C776   1.278       .  A
O768        C777   1.279       .  A
O769        C776   1.272       .  A
O770        C777   1.277       .  A
O771        C778   1.279       .  A
O772        C778   1.270       .  A
C773        C894   1.486       .  S
C774        C886   1.477       .  S
C775        C881   1.474       .  S
C776        C902   1.483       .  S
C777        C930   1.481       .  S
C778        C941   1.482       .  S
C779        N780   1.360       .  A
C779        N784   1.367       .  A
C779        C878   1.477       .  S
N780        C781   1.356       .  A
C781        N782   1.351       .  A
C781        C873   1.466       .  S
N782        C783   1.355       .  A
C783        N784   1.360       .  A
C783        C882   1.484       .  S
C785        N786   1.362       .  A
C785        N790   1.365       .  A
C785        C869   1.477       .  S
N786        C787   1.359       .  A
C787        N788   1.355       .  A
N788        C789   1.358       .  A
C789        N790   1.360       .  A
C789        C885   1.485       .  S
Zn791       O795   1.934       .  S
Zn791       O796   1.995       .  S
Zn791       O800   1.973       .  S
Zn791       O807   1.991       .  S
Zn792       O795   1.939       .  S
Zn792       O797   1.988       .  S
Zn792       O799   2.017       .  S
Zn792       O803   1.974       .  S
Zn793       O795   1.983       .  S
Zn793       O798   2.045       .  S
Zn793       O801   2.061       .  S
Zn793       O804   2.034       .  S
Zn794       O795   1.970       .  S
Zn794       O802   2.038       .  S
Zn794       O805   2.054       .  S
Zn794       O806   2.053       .  S
O796        C808   1.268       .  A
O797        C809   1.270       .  A
O798        C810   1.275       .  A
O799        C808   1.272       .  A
O800        C810   1.271       .  A
O801        C809   1.277       .  A
O802        C811   1.277       .  A
O803        C812   1.270       .  A
O804        C811   1.278       .  A
O805        C812   1.276       .  A
O806        C813   1.278       .  A
O807        C813   1.270       .  A
C808        C890   1.469       .  S
C809        C898   1.473       .  S
C810        C874   1.471       .  S
C811        C861   1.480       .  S
C812        C865   1.481       .  S
C813        C858   1.476       .  S
C814        N815   1.367       .  A
C814        N819   1.362       .  A
C814        C862   1.477       .  S
N815        C816   1.362       .  A
C816        N817   1.355       .  A
C816        C918   1.485   1_545  S
N817        C818   1.352       .  A
C818        N819   1.358       .  A
C820        N821   1.365       .  A
C820        N825   1.360       .  A
C820        C857   1.481       .  S
N821        C822   1.358       .  A
C822        N823   1.353       .  A
C822        C849   1.466       .  S
N823        C824   1.353       .  A
C824        N825   1.360       .  A
C824        C914   1.472   1_545  S
Zn826       O830   1.952   1_455  S
Zn826       O835   1.996   1_455  S
Zn827       O830   1.972       .  S
Zn827       O832   2.031       .  S
Zn828       O830   1.981       .  S
Zn828       O833   2.052       .  S
Zn828       O836   2.040       .  S
Zn828       O839   2.040       .  S
Zn829       O830   1.936       .  S
Zn829       O837   1.999       .  S
O831        C843   1.271       .  A
O832        C844   1.277       .  A
O833        C845   1.276       .  A
O834        C843   1.272       .  A
O835        C845   1.271       .  A
O836        C844   1.279       .  A
O837        C846   1.272       .  A
O838        C847   1.271       .  A
O839        C846   1.274       .  A
O840        C847   1.277       .  A
O841        C848   1.277       .  A
O842        C848   1.270       .  A
C843        C853   1.478       .  S
C844        C870   1.478       .  S
C845        C921   1.472   1_545  S
C846        C850   1.477       .  S
C847        C877   1.476       .  S
C848        C933   1.479   1_545  S
C849        C850   1.342       .  D
C849        H851   1.086       .  S
C850        H852   1.087       .  S
C853        C854   1.343       .  D
C853        H855   1.086       .  S
C854        H856   1.087       .  S
C857        C858   1.342       .  D
C857        H859   1.086       .  S
C858        H860   1.087       .  S
C861        C862   1.344       .  D
C861        H863   1.087       .  S
C862        H864   1.087       .  S
C865        C866   1.347       .  D
C865        H867   1.086       .  S
C866        H868   1.087       .  S
C869        C870   1.343       .  D
C869        H871   1.087       .  S
C870        H872   1.087       .  S
C873        C874   1.342       .  D
C873        H875   1.088       .  S
C874        H876   1.086       .  S
C877        C878   1.341       .  D
C877        H879   1.087       .  S
C878        H880   1.087       .  S
C881        C882   1.348       .  D
C881        H883   1.087       .  S
C882        H884   1.086       .  S
C885        C886   1.345       .  D
C885        H887   1.086       .  S
C886        H888   1.088       .  S
C889        C890   1.341       .  D
C889        H891   1.087       .  S
C890        H892   1.087       .  S
C893        C894   1.346       .  D
C893        H895   1.086       .  S
C894        H896   1.086       .  S
C897        C898   1.344       .  D
C897        H899   1.086       .  S
C898        H900   1.087       .  S
C901        C902   1.350       .  D
C901        H903   1.087       .  S
C902        H904   1.086       .  S
C905        C906   1.340       .  D
C905        H907   1.087       .  S
C906        H908   1.087       .  S
C909        C910   1.347       .  D
C909        H911   1.087       .  S
C910        H912   1.087       .  S
C913        C914   1.341       .  D
C913        H915   1.087       .  S
C914        H916   1.087       .  S
C917        C918   1.348       .  D
C917        H919   1.087       .  S
C918        H920   1.086       .  S
C921        C922   1.349       .  D
C921        H923   1.087       .  S
C922        H924   1.086       .  S
C925        C926   1.346       .  D
C925        H927   1.087       .  S
C926        H928   1.086       .  S
C929        C930   1.345       .  D
C929        H931   1.087       .  S
C930        H932   1.087       .  S
C933        C934   1.341       .  D
C933        H935   1.087       .  S
C934        H936   1.087       .  S
C937        C938   1.345       .  D
C937        H939   1.086       .  S
C938        H940   1.087       .  S
C941        C942   1.345       .  D
C941        H943   1.087       .  S
C942        H944   1.086       .  S
