geometry optimzed in LAMMPS
_audit_creation_date              2020-11-30 
_audit_creation_method            'lammps2cif' 
_symmetry_space_group_name_H-M    'P1' 
_symmetry_Int_Tables_number       1 
_symmetry_cell_setting            triclinic 
loop_ 
_symmetry_equiv_pos_as_xyz 
  x,y,z 
_cell_length_a                    36.31680664 
_cell_length_b                    36.68933816057569 
_cell_length_c                    31.28787055467886 
_cell_angle_alpha                 90.88060793211518 
_cell_angle_beta                  90.15326233907899 
_cell_angle_gamma                 90.17084237464053 
loop_ 
_atom_site_label 
_atom_site_type_symbol 
_atom_site_fract_x 
_atom_site_fract_y 
_atom_site_fract_z 
_atom_site_charge 
C1          C  0.57581035  0.02934432  0.97648954    -0.10400
C2          C  0.59354724  0.99732376  0.31709830    -0.04300
C3          C  0.57391056  0.96563573  0.32586201    -0.10400
C4          C  0.53531558  0.96716090  0.33021617     0.10500
C5          C  0.51730837  0.00141510  0.32726592    -0.02200
C6          C  0.53733523  0.03190406  0.98286135     0.10300
C7          C  0.51886235  0.06535105  0.97958407    -0.12200
C8          C  0.48086826  0.06751967  0.98548997    -0.12200
C9          C  0.46017086  0.03640446  0.99539675     0.10300
C10         C  0.47817831  0.00221293  0.99895703    -0.02200
C11         C  0.51440215  0.93570525  0.33794271    -0.12300
C12         C  0.47629997  0.93772438  0.34296258    -0.12300
C13         C  0.45791725  0.97130037  0.34064452     0.10500
C14         C  0.41945149  0.97383281  0.34674371    -0.10400
C15         C  0.40240699  0.00697008  0.01252626    -0.04300
C16         C  0.42175862  0.03819404  0.00125828    -0.10400
H17         H  0.53363154  0.09007496  0.97190432     0.07800
H18         H  0.46775716  0.09384345  0.98243546     0.07800
H19         H  0.52745180  0.90929437  0.34023518     0.08000
H20         H  0.46137129  0.91277402  0.34917535     0.08000
H21         H  0.62329786  0.99562466  0.31446460     0.04400
H22         H  0.37279044  0.00902903  0.01622513     0.04400
C23         C  0.83565961  0.88168359  0.32292994     0.86900
C24         C  0.85395867  0.89900346  0.02954578    -0.53300
C25         C  0.89138779  0.89586858  0.02907902     0.09800
C26         C  0.90717268  0.87499644  0.32242520     0.20800
C27         C  0.85430158  0.90079599  0.28542282    -0.54100
C28         C  0.89182977  0.89735612  0.28510220     0.09900
C29         C  0.84883311  0.84212769  0.32002356    -0.53600
C30         C  0.88628917  0.83823451  0.31991587     0.10500
H31         H  0.83919687  0.91300332  0.05506552     0.15000
H32         H  0.93764799  0.87246688  0.32221390     0.00800
H33         H  0.83921173  0.91611603  0.26170116     0.15300
H34         H  0.82968339  0.81950823  0.31713685     0.15100
C35         C  0.91511529  0.91594501  0.25349337     0.42900
N36         N  0.93082672  0.95274322  0.20420211     0.01800
C37         C  0.08845689  0.94830436  0.07829601    -0.06100
H38         H  0.11473232  0.96507653  0.24129270     0.07300
C39         C  0.04179732  0.08646667  0.23510796    -0.06500
Co40       Co  0.99851530  0.92818531  0.15720821     0.74200
N41         N  0.06548614  0.95632047  0.20331235    -0.25600
Co42       Co  0.06489200  0.99698145  0.15679071     0.74100
C43         C  0.07597235  0.07563082  0.25554329     0.43000
N44         N  0.95467513  0.06029878  0.20486446     0.01400
N45         N  0.06345988  0.03800667  0.20431269     0.01500
N46         N  0.04556337  0.90352639  0.08142256    -0.46500
H47         H  0.96574693  0.87952626  0.24136638     0.07200
N48         N  0.04020157  0.93031968  0.20314071     0.01800
N49         N  0.06243604  0.03783332  0.11002794     0.01500
C50         C  0.07477364  0.07654399  0.06108051     0.43100
N51         N  0.92913222  0.03465459  0.20559028    -0.25100
C52         C  0.94955614  0.90288533  0.07954021    -0.06000
N53         N  0.90485337  0.94616106  0.23266177    -0.46200
N54         N  0.08704734  0.04583581  0.08005279    -0.46400
C55         C  0.91455527  0.91459954  0.06141832     0.42900
N56         N  0.03939806  0.92939434  0.11045898     0.01800
N57         N  0.92800392  0.03383648  0.11180204    -0.25100
N58         N  0.95731874  0.92811457  0.20425061    -0.25600
N59         N  0.95357836  0.05946214  0.11241412     0.01400
H60         H  0.87838428  0.02661068  0.07390547     0.07300
H61         H  0.02359040  0.11063162  0.07728918     0.07300
N62         N  0.06440794  0.95564336  0.10985080    -0.25700
N63         N  0.03630124  0.06182207  0.20402856    -0.25300
N64         N  0.93018086  0.95189640  0.11170211     0.01800
C65         C  0.07749819  0.91530228  0.25309929     0.43200
C66         C  0.90530728  0.04290640  0.23725255    -0.06500
N67         N  0.03531251  0.06167956  0.11164026    -0.25300
H68         H  0.02457823  0.10989922  0.24154013     0.07300
N69         N  0.04670173  0.90506555  0.23188127    -0.46500
H70         H  0.88058123  0.02783993  0.24476077     0.07300
C71         C  0.91657324  0.07594188  0.06284422     0.43000
C72         C  0.94999801  0.90384605  0.23493335    -0.06000
Co73       Co  0.92886475  0.99317378  0.15832645     0.73800
N74         N  0.94934241  0.08647004  0.23365163    -0.46200
C75         C  0.07587124  0.91365690  0.05975995     0.43300
N76         N  0.90414455  0.94493829  0.08304858    -0.46200
Co77       Co  0.99497060  0.06103989  0.15822118     0.73900
C78         C  0.04066827  0.08692475  0.08205143    -0.06500
C79         C  0.09010659  0.94941135  0.23441153    -0.06100
N80         N  0.95679334  0.92739778  0.11087645    -0.25600
N81         N  0.08824821  0.04540573  0.23470366    -0.46400
H82         H  0.11283796  0.96402387  0.07110750     0.07300
C83         C  0.90334757  0.04167016  0.08091237    -0.06500
Cl84       Cl  0.99681632  0.99478250  0.15760945    -0.49500
C85         C  0.91889334  0.07750424  0.25552492     0.43000
H86         H  0.96557068  0.87875210  0.07226286     0.07200
N87         N  0.94752399  0.08516583  0.08423487    -0.46200
C88         C  0.89241836  0.15766221  0.32959208     0.86900
C89         C  0.90623001  0.13715852  0.03405444    -0.53300
C90         C  0.89897948  0.10067524  0.03204981     0.09800
C91         C  0.87742878  0.08798261  0.32475655     0.20800
C92         C  0.90995638  0.13821226  0.29095039    -0.54100
C93         C  0.90214744  0.10160814  0.28835559     0.09900
C94         C  0.85128225  0.14927207  0.32619784    -0.53600
C95         C  0.84308981  0.11282494  0.32339849     0.10500
H96         H  0.92202991  0.14962894  0.05996254     0.15000
H97         H  0.87132404  0.05831451  0.32273757     0.00800
H98         H  0.92761796  0.15199827  0.26833581     0.15300
H99         H  0.83098195  0.17079760  0.32458753     0.15100
C100        C  0.10961528  0.83546975  0.32095897     0.86900
C101        C  0.09016123  0.85365370  0.02545838    -0.53300
C102        C  0.09414123  0.89075910  0.02700642     0.09800
C103        C  0.11734240  0.90618333  0.32423682     0.20800
C104        C  0.09253605  0.85494402  0.28278784    -0.54100
C105        C  0.09630650  0.89199028  0.28439111     0.09900
C106        C  0.14967264  0.84814132  0.32228730    -0.53600
C107        C  0.15419645  0.88515151  0.32447818     0.10500
H108        H  0.07446691  0.83859064  0.04887784     0.15000
H109        H  0.12034835  0.93631974  0.32568557     0.00800
H110        H  0.07770704  0.84073851  0.25731378     0.15300
H111        H  0.17198533  0.82867501  0.32302938     0.15100
C112        C  0.10792751  0.15509658  0.32640441     0.86900
C113        C  0.09164328  0.13535516  0.28739912    -0.53300
C114        C  0.09635434  0.09847361  0.28701101     0.09800
C115        C  0.11797565  0.08457116  0.32612209     0.20800
C116        C  0.09020135  0.13651695  0.02993849    -0.54100
C117        C  0.09488178  0.09942371  0.03017996     0.09900
C118        C  0.14825950  0.14415386  0.32682786    -0.53600
C119        C  0.15410451  0.10734636  0.32709828     0.10500
H120        H  0.07631354  0.14939868  0.26278255     0.15000
H121        H  0.12198283  0.05456496  0.32587941     0.00800
H122        H  0.07432831  0.15128040  0.05390146     0.15300
H123        H  0.17005857  0.16433119  0.32511871     0.15100
C124        C  0.98612964  0.57665106  0.99116158    -0.10400
C125        C  0.01996967  0.59338704  0.00018477    -0.04300
C126        C  0.05134971  0.57362826  0.01073643    -0.10400
C127        C  0.04903408  0.53539499  0.01388981     0.10500
C128        C  0.01501022  0.51752059  0.00469195    -0.02200
C129        C  0.98338748  0.53816411  0.99337364     0.10300
C130        C  0.95025882  0.51970926  0.98395153    -0.12200
C131        C  0.94812043  0.48168669  0.98540425    -0.12200
C132        C  0.97895198  0.46077755  0.99647944     0.10300
C133        C  0.01271096  0.47890918  0.00658835    -0.02200
C134        C  0.07983060  0.51460315  0.02532754    -0.12300
C135        C  0.07753024  0.47674540  0.02734301    -0.12300
C136        C  0.04439665  0.45844285  0.01792628     0.10500
C137        C  0.04218500  0.42008350  0.01842195    -0.10400
C138        C  0.00873442  0.40287364  0.00930296    -0.04300
C139        C  0.97711433  0.42223303  0.99834887    -0.10400
H140        H  0.92583687  0.53450887  0.97491493     0.07800
H141        H  0.92201345  0.46872477  0.97781566     0.07800
H142        H  0.10599868  0.52747867  0.03250581     0.08000
H143        H  0.10206141  0.46183601  0.03606898     0.08000
H144        H  0.02184457  0.62292180  0.00044951     0.04400
H145        H  0.00761364  0.37328882  0.00965060     0.04400
C146        C  0.11262939  0.25950767  0.01350030     0.19100
C147        C  0.10872988  0.28230458  0.04959447    -0.19000
C148        C  0.10166713  0.31958606  0.04494820    -0.11300
C149        C  0.09901987  0.33469324  0.00390195     0.21400
C150        C  0.10852384  0.31164072  0.30210344    -0.20600
C151        C  0.11464357  0.27449461  0.30724965    -0.11400
C152        C  0.08298527  0.37118486  0.99606601    -0.15600
C153        C  0.07392532  0.39581402  0.02654475    -0.29500
C154        C  0.11591227  0.21948140  0.01863754    -0.03700
C155        C  0.10228221  0.19578432  0.32477509    -0.40300
H156        H  0.10924162  0.27091382  0.08134644     0.12500
H157        H  0.09634074  0.33575460  0.07340368     0.12100
H158        H  0.10684345  0.32216431  0.26997091     0.11600
H159        H  0.11871655  0.25763103  0.27900008     0.11800
H160        H  0.07245552  0.37564386  0.96396299     0.14600
H161        H  0.08429697  0.39403586  0.05894388     0.13300
H162        H  0.12934280  0.20913130  0.04705134     0.11000
H163        H  0.08702993  0.20639132  0.29778296     0.13000
C164        C  0.11926044  0.73243511  0.01021685     0.19100
C165        C  0.11263977  0.71063513  0.04583260    -0.19000
C166        C  0.10820943  0.67284661  0.04081630    -0.11300
C167        C  0.11107867  0.65623036  0.00002659     0.21400
C168        C  0.11765366  0.67777266  0.29685523    -0.20600
C169        C  0.12260685  0.71534170  0.30168750    -0.11400
C170        C  0.09667521  0.61900755  0.99042307    -0.15600
C171        C  0.08501694  0.59539824  0.02004283    -0.29500
C172        C  0.11944768  0.77269811  0.01501875    -0.03700
C173        C  0.10606421  0.79445003  0.31816868    -0.40300
H174        H  0.10876776  0.72307427  0.07707995     0.12500
H175        H  0.10025343  0.65738053  0.06846924     0.12100
H176        H  0.11739259  0.66601871  0.26490235     0.11600
H177        H  0.12716570  0.73140287  0.27343381     0.11800
H178        H  0.08461741  0.61388811  0.29171539     0.14600
H179        H  0.09373963  0.59791291  0.05312034     0.13300
H180        H  0.13038569  0.78477852  0.04437985     0.11000
H181        H  0.09195418  0.78264405  0.29056096     0.13000
C182        C  0.89727869  0.26416292  0.98124936     0.19100
C183        C  0.90552114  0.28725642  0.28292253    -0.19000
C184        C  0.91464109  0.32488969  0.95718068    -0.11300
C185        C  0.91558975  0.33794989  0.99980105     0.21400
C186        C  0.90489304  0.31434181  0.03240225    -0.20600
C187        C  0.89571410  0.27807499  0.02332994    -0.11400
C188        C  0.93367794  0.37289802  0.01295937    -0.15600
C189        C  0.94414799  0.39980770  0.98664795    -0.29500
C190        C  0.89097713  0.22364122  0.30680737    -0.03700
C191        C  0.90128207  0.19789822  0.33468824    -0.40300
H192        H  0.90583843  0.27748731  0.25008930     0.12500
H193        H  0.92421942  0.34064903  0.26604203     0.12100
H194        H  0.90522398  0.32355144  0.06545207     0.11600
H195        H  0.88807731  0.26077596  0.04958879     0.11800
H196        H  0.94399450  0.37416443  0.04563056     0.14600
H197        H  0.93350638  0.40128748  0.95431740     0.13300
H198        H  0.87817282  0.21554586  0.27672189     0.11000
H199        H  0.91593013  0.20756944  0.02897593     0.13000
C200        C  0.93708063  0.66580942  0.96409481     0.19100
C201        C  0.95317027  0.69528450  0.28036131    -0.19000
C202        C  0.93757975  0.72970958  0.28675106    -0.11300
C203        C  0.90460190  0.73507226  0.97820969     0.21400
C204        C  0.89028886  0.70391413  0.99791869    -0.20600
C205        C  0.90645268  0.66964829  0.99124745    -0.11400
C206        C  0.88691359  0.77102606  0.98638468    -0.15600
C207        C  0.90539660  0.80245904  0.31513266    -0.29500
C208        C  0.95888877  0.63160429  0.95993385    -0.03700
C209        C  0.95423777  0.60131009  0.98341321    -0.40300
H210        H  0.97808740  0.69315520  0.26151866     0.12500
H211        H  0.95033834  0.75277131  0.27155443     0.12100
H212        H  0.86697123  0.70622476  0.01926908     0.11600
H213        H  0.89521123  0.64666346  0.00807430     0.11800
H214        H  0.85879748  0.77042078  0.99789545     0.14600
H215        H  0.93466648  0.80332162  0.30820627     0.13300
H216        H  0.98322322  0.63019112  0.27558953     0.11000
H217        H  0.92947278  0.59706344  0.00191016     0.13000
C218        C  0.25996657  0.09870049  0.99044663     0.19100
C219        C  0.28905794  0.12026033  0.00678655    -0.19000
C220        C  0.32575857  0.11156663  0.99774761    -0.11300
C221        C  0.33490757  0.08391418  0.30619024     0.21400
C222        C  0.30601721  0.06368957  0.28746986    -0.20600
C223        C  0.26935658  0.07162973  0.29701865    -0.11400
C224        C  0.37308704  0.07121606  0.29843016    -0.15600
C225        C  0.39958665  0.07258836  0.32862664    -0.29500
C226        C  0.22149249  0.11029804  0.99932940    -0.03700
C227        C  0.19171428  0.09142876  0.32444440    -0.40300
H228        H  0.28337324  0.14401694  0.02666544     0.12500
H229        H  0.34740995  0.12862605  0.01098651     0.12100
H230        H  0.31184421  0.04097295  0.26603233     0.11600
H231        H  0.24813750  0.05549224  0.28149094     0.11800
H232        H  0.37651250  0.05138993  0.27252766     0.14600
H233        H  0.39675366  0.09022939  0.02061210     0.13300
H234        H  0.21853084  0.13701947  0.01416051     0.11000
H235        H  0.19401010  0.06369025  0.31237304     0.13000
C236        C  0.32931875  0.92729076  0.36800426     0.19100
C237        C  0.29734155  0.94687258  0.37847351    -0.19000
C238        C  0.26262462  0.93400955  0.36614543    -0.11300
C239        C  0.25916277  0.90094600  0.34316030     0.21400
C240        C  0.29115909  0.88081682  0.33384703    -0.20600
C241        C  0.32594588  0.89387315  0.34592809    -0.11400
C242        C  0.22284738  0.88514037  0.33082935    -0.15600
C243        C  0.19056325  0.90346614  0.33100338    -0.29500
C244        C  0.36537050  0.94440830  0.37789828    -0.03700
C245        C  0.39465840  0.94182371  0.35163266    -0.40300
H246        H  0.29927040  0.97283020  0.39545403     0.12500
H247        H  0.23883475  0.94986187  0.37522200     0.12100
H248        H  0.28925230  0.85486403  0.31692180     0.11600
H249        H  0.34999799  0.87785386  0.33798728     0.11800
H250        H  0.22326908  0.85661262  0.32158850     0.14600
H251        H  0.19012372  0.93254089  0.33751057     0.13300
H252        H  0.36521117  0.96639570  0.40164051     0.11000
H253        H  0.39585138  0.91923903  0.99822040     0.13000
C254        C  0.66012046  0.92552459  0.02191969     0.19100
C255        C  0.68558650  0.94819331  0.04343096    -0.19000
C256        C  0.72313291  0.94592239  0.03447002    -0.11300
C257        C  0.73687100  0.91882585  0.33905294     0.21400
C258        C  0.71118746  0.89668180  0.31695695    -0.20600
C259        C  0.67343455  0.89983404  0.32552468    -0.11400
C260        C  0.77699894  0.91656832  0.33100377    -0.15600
C261        C  0.79412254  0.88469892  0.32374306    -0.29500
C262        C  0.62034434  0.93278325  0.02871993    -0.03700
C263        C  0.59643880  0.93246975  0.33141752    -0.40300
H264        H  0.67630117  0.96858781  0.06628905     0.12500
H265        H  0.74209768  0.96402091  0.05123732     0.12100
H266        H  0.72016291  0.87756915  0.29251589     0.11600
H267        H  0.65426227  0.88282025  0.30761995     0.11800
H268        H  0.79350790  0.94107467  0.33594062     0.14600
H269        H  0.77725415  0.86115194  0.98850713     0.13300
H270        H  0.61373148  0.95066882  0.05564692     0.11000
H271        H  0.60173522  0.91666821  0.30254860     0.13000
C272        C  0.73731420  0.10511886  0.30714484     0.19100
C273        C  0.70634216  0.12218459  0.32524112    -0.19000
C274        C  0.67076515  0.10952051  0.31587630    -0.11300
C275        C  0.66559092  0.07969341  0.28768872     0.21400
C276        C  0.69650941  0.06409564  0.26777342    -0.20600
C277        C  0.73196139  0.07654033  0.27737427    -0.10600
C278        C  0.62952846  0.06124493  0.28111841    -0.15600
C279        C  0.60116719  0.06329257  0.30875954    -0.29500
C280        C  0.77465536  0.11873044  0.31852182    -0.03700
C281        C  0.80536441  0.09816754  0.31574079    -0.40300
H282        H  0.70932582  0.14051101  0.02014663     0.12500
H283        H  0.64778341  0.11758803  0.00314785     0.12100
H284        H  0.69336326  0.04125005  0.24566457     0.11600
H285        H  0.75498118  0.06374879  0.26133498     0.11800
H286        H  0.62881108  0.03942945  0.25711856     0.14600
H287        H  0.59785667  0.08327719  0.99598479     0.13300
H288        H  0.77641088  0.14659344  0.33052846     0.11000
H289        H  0.80318881  0.06945602  0.30710129     0.13000
C290        C  0.57650695  0.03122107  0.31377002    -0.10400
C291        C  0.59239526  0.99657127  0.64410862    -0.04300
C292        C  0.57315870  0.96486007  0.65386351    -0.10400
C293        C  0.53487355  0.96631419  0.66074206     0.10500
C294        C  0.51669748  0.00051131  0.65907052    -0.02200
C295        C  0.53799365  0.03364372  0.31935214     0.10300
C296        C  0.51956968  0.06715339  0.31656841    -0.12200
C297        C  0.48148123  0.06917515  0.32152255    -0.12200
C298        C  0.46062261  0.03777856  0.32968520     0.10300
C299        C  0.47861330  0.00351335  0.33266580    -0.02200
C300        C  0.51446711  0.93475858  0.66965970    -0.12300
C301        C  0.47661752  0.93660889  0.67680375    -0.12300
C302        C  0.45801574  0.97010282  0.67568494     0.10500
C303        C  0.41976493  0.97238639  0.68368522    -0.10400
C304        C  0.40249395  0.00779524  0.34355706    -0.04300
C305        C  0.42207674  0.03938586  0.33431172    -0.10400
H306        H  0.53447785  0.09208832  0.31015122     0.07800
H307        H  0.46842744  0.09554119  0.31896142     0.07800
H308        H  0.52768271  0.90841569  0.67106512     0.08000
H309        H  0.46207411  0.91156698  0.68377249     0.08000
H310        H  0.62202965  0.99481257  0.64018253     0.04400
H311        H  0.37279405  0.00964500  0.34646887     0.04400
C312        C  0.83465331  0.88144831  0.65624655     0.86900
C313        C  0.85456451  0.89776954  0.36284247    -0.53300
C314        C  0.89200869  0.89487374  0.36243771     0.09800
C315        C  0.90617908  0.87512843  0.65601385     0.20800
C316        C  0.85330724  0.90047391  0.61862851    -0.54100
C317        C  0.89087384  0.89718821  0.61848139     0.09900
C318        C  0.84804929  0.84195271  0.65366725    -0.53600
C319        C  0.88551701  0.83828554  0.65365208     0.10500
H320        H  0.83970467  0.91159871  0.38840502     0.15000
H321        H  0.93666735  0.87275383  0.65594388     0.00800
H322        H  0.83821648  0.91559927  0.59473440     0.15300
H323        H  0.82901757  0.81922985  0.65098165     0.15100
C324        C  0.91431601  0.91562802  0.58689350     0.42900
N325        N  0.93043143  0.95240551  0.53778595     0.01800
C326        C  0.08903873  0.94802999  0.41310486    -0.06100
H327        H  0.11476739  0.96491056  0.57483291     0.07300
C328        C  0.04098476  0.08675822  0.56852547    -0.06500
Co329      Co  0.99846016  0.92782885  0.49120534     0.74200
N330        N  0.06516794  0.95635952  0.53746979    -0.25600
Co331      Co  0.06464019  0.99690955  0.49097245     0.74100
C332        C  0.07512470  0.07613259  0.58918976     0.43000
N333        N  0.95401612  0.06007911  0.53800705     0.01400
N334        N  0.06280891  0.03809902  0.53830491     0.01500
N335        N  0.04632037  0.90306716  0.41597660    -0.46500
H336        H  0.96505097  0.87918697  0.57527472     0.07200
N337        N  0.03996871  0.93026713  0.53725653     0.01800
N338        N  0.06233886  0.03750868  0.44404546     0.01500
C339        C  0.07487611  0.07601393  0.39497417     0.43100
N340        N  0.92850688  0.03440531  0.53882058    -0.25100
C341        C  0.94996508  0.90222153  0.41326250    -0.06000
N342        N  0.90423702  0.94583785  0.56597648    -0.46200
N343        N  0.08716661  0.04549798  0.41431357    -0.46400
C344        C  0.91498165  0.91374288  0.39490919     0.42900
N345        N  0.03970547  0.92905807  0.44473516     0.01800
N346        N  0.92782696  0.03295061  0.44507533    -0.25100
N347        N  0.95693726  0.92778225  0.53805265    -0.25600
N348        N  0.95339558  0.05856641  0.44555393     0.01400
H349        H  0.87821062  0.02551013  0.40726349     0.07300
H350        H  0.02339949  0.10992249  0.41044984     0.07300
N351        N  0.06461507  0.95541688  0.44425748    -0.25700
N352        N  0.03561588  0.06186353  0.53767110    -0.25300
N353        N  0.93019967  0.95114717  0.44530681     0.01800
C354        C  0.07771880  0.91501818  0.58654420     0.43200
C355        C  0.90448423  0.04292835  0.57022519    -0.06500
N356        N  0.03508081  0.06120190  0.44523784    -0.25300
H357        H  0.02371601  0.11023710  0.57464100     0.07300
N358        N  0.04679640  0.90480286  0.56560389    -0.46500
H359        H  0.87970891  0.02793739  0.57768873     0.07300
C360        C  0.91643544  0.07472435  0.39585787     0.43000
C361        C  0.94936529  0.90353030  0.56868442    -0.06000
Co362      Co  0.92858652  0.99262978  0.49177641     0.73800
N363        N  0.94849000  0.08648654  0.56645109    -0.46200
C364        C  0.07683382  0.91321761  0.39467792     0.43300
N365        N  0.90432954  0.94403860  0.41648688    -0.46200
Co366      Co  0.99451747  0.06061912  0.49159137     0.73900
C367        C  0.04052819  0.08630937  0.41551080    -0.06500
C368        C  0.09004708  0.94932805  0.56821104    -0.06100
N369        N  0.95694187  0.92678309  0.44463631    -0.25600
N370        N  0.08748712  0.04576380  0.56872114    -0.46400
H371        H  0.11342847  0.96380982  0.40617384     0.07300
C372        C  0.90318090  0.04058113  0.41412935    -0.06500
Cl373      Cl  0.99658475  0.99432659  0.49139140    -0.49500
C374        C  0.91792706  0.07772133  0.58822597     0.43000
H375        H  0.96614831  0.87817576  0.40608213     0.07200
N376        N  0.94736400  0.08409257  0.41718955    -0.46200
C377        C  0.89150657  0.15859543  0.66140157     0.86900
C378        C  0.90581414  0.13603327  0.36797931    -0.53300
C379        C  0.89856009  0.09958283  0.36555159     0.09800
C380        C  0.87612065  0.08894367  0.65717224     0.20800
C381        C  0.90904277  0.13875173  0.62301730    -0.54100
C382        C  0.90106646  0.10215834  0.62072983     0.09900
C383        C  0.85031455  0.15041638  0.65789321    -0.53600
C384        C  0.84189788  0.11401536  0.65534355     0.10500
H385        H  0.92152617  0.14831489  0.39407288     0.15000
H386        H  0.86981961  0.05931145  0.65536182     0.00800
H387        H  0.92688295  0.15228584  0.60035635     0.15300
H388        H  0.83009788  0.17200292  0.65577980     0.15100
C389        C  0.10917960  0.83513334  0.65425137     0.86900
C390        C  0.09134693  0.85339182  0.36008639    -0.53300
C391        C  0.09518473  0.89051249  0.36176766     0.09800
C392        C  0.11716799  0.90578230  0.65765426     0.20800
C393        C  0.09296987  0.85460185  0.61561641    -0.54100
C394        C  0.09677782  0.89162882  0.61739946     0.09900
C395        C  0.14928287  0.84763961  0.65670892    -0.53600
C396        C  0.15390703  0.88462064  0.65882958     0.10500
H397        H  0.07606069  0.83817376  0.38372015     0.15000
H398        H  0.12027733  0.93590910  0.65912032     0.00800
H399        H  0.07836815  0.84046210  0.58991376     0.15300
H400        H  0.17156437  0.82818381  0.65845262     0.15100
C401        C  0.10742932  0.15578676  0.65974894     0.86900
C402        C  0.09079330  0.13600910  0.62091419    -0.53300
C403        C  0.09544693  0.09911505  0.62056352     0.09800
C404        C  0.11722575  0.08523146  0.65950920     0.20800
C405        C  0.09051449  0.13615112  0.36460650    -0.54100
C406        C  0.09532773  0.09907839  0.36457644     0.09900
C407        C  0.14775263  0.14468135  0.65986781    -0.53600
C408        C  0.15339217  0.10783966  0.66029998     0.10500
H409        H  0.07533847  0.15002407  0.59639532     0.15000
H410        H  0.12112164  0.05521030  0.65933782     0.00800
H411        H  0.07440450  0.15071361  0.38850452     0.15300
H412        H  0.16969682  0.16471839  0.65819245     0.15100
C413        C  0.98556592  0.57535270  0.32822040    -0.10400
C414        C  0.01913729  0.59248422  0.33745874    -0.04300
C415        C  0.05103648  0.57308327  0.34663484    -0.10400
C416        C  0.04940073  0.53475047  0.34887355     0.10500
C417        C  0.01549918  0.51648654  0.34002394    -0.02200
C418        C  0.98338841  0.53681155  0.32976514     0.10300
C419        C  0.95040195  0.51801484  0.32065178    -0.12200
C420        C  0.94888485  0.47993513  0.32131826    -0.12200
C421        C  0.98024305  0.45931826  0.33116756     0.10300
C422        C  0.01386422  0.47781050  0.34096459    -0.02200
C423        C  0.08072479  0.51425060  0.35901435    -0.12300
C424        C  0.07904137  0.47633256  0.36025496    -0.12300
C425        C  0.04603523  0.45766745  0.35119558     0.10500
C426        C  0.04442890  0.41927868  0.35101675    -0.10400
C427        C  0.01119220  0.40165011  0.34186295    -0.04300
C428        C  0.97906950  0.42071663  0.33214460    -0.10400
H429        H  0.92560110  0.53262140  0.31257453     0.07800
H430        H  0.92284436  0.46669728  0.31404195     0.07800
H431        H  0.10681705  0.52742634  0.36587288     0.08000
H432        H  0.10396057  0.46167149  0.36803688     0.08000
H433        H  0.02053206  0.62206230  0.33815986     0.04400
H434        H  0.01051714  0.37205638  0.34168033     0.04400
C435        C  0.11438946  0.25926916  0.34820047     0.19100
C436        C  0.11133016  0.28251252  0.38401036    -0.19000
C437        C  0.10497474  0.31986826  0.37887773    -0.11300
C438        C  0.10215785  0.33454497  0.33760292     0.21400
C439        C  0.10598446  0.31259626  0.63588632    -0.20600
C440        C  0.11206692  0.27540980  0.64053007    -0.11400
C441        C  0.08630865  0.37104276  0.32927807    -0.15600
C442        C  0.07643740  0.39549291  0.35956991    -0.29500
C443        C  0.11674607  0.21924368  0.35378180    -0.03700
C444        C  0.10175994  0.19648302  0.65814604    -0.40300
H445        H  0.11189297  0.27145854  0.41592699     0.12500
H446        H  0.10028540  0.33641301  0.40716116     0.12100
H447        H  0.10284732  0.32315950  0.60386542     0.11600
H448        H  0.11469686  0.25865228  0.61198948     0.11800
H449        H  0.07629033  0.37546763  0.29695881     0.14600
H450        H  0.08619443  0.39373031  0.39220640     0.13300
H451        H  0.13026807  0.20881486  0.38209430     0.11000
H452        H  0.08590645  0.20694162  0.63154866     0.13000
C453        C  0.12034991  0.73204075  0.34228576     0.19100
C454        C  0.11655722  0.71001489  0.37828211    -0.19000
C455        C  0.11123378  0.67229823  0.37346026    -0.11300
C456        C  0.11036391  0.65598165  0.33237346     0.21400
C457        C  0.11934766  0.67764191  0.63078660    -0.20600
C458        C  0.12312536  0.71532131  0.63559448    -0.11400
C459        C  0.09494464  0.61894323  0.32394948    -0.15600
C460        C  0.08475698  0.59526848  0.35425981    -0.29500
C461        C  0.12109533  0.77231935  0.34741899    -0.03700
C462        C  0.10551511  0.79418342  0.65143800    -0.40300
H463        H  0.11553302  0.72226150  0.40997540     0.12500
H464        H  0.10558107  0.65669178  0.40171548     0.12100
H465        H  0.11995297  0.66583008  0.59887202     0.11600
H466        H  0.12773992  0.73143877  0.60738102     0.11800
H467        H  0.08955093  0.61243003  0.62476740     0.14600
H468        H  0.09497737  0.59768158  0.38674160     0.13300
H469        H  0.13351431  0.78411117  0.37613990     0.11000
H470        H  0.09212800  0.78232484  0.62340508     0.13000
C471        C  0.89750028  0.26314480  0.31613042     0.19100
C472        C  0.90392624  0.28866454  0.61424352    -0.19000
C473        C  0.91566246  0.32358150  0.29209234    -0.11300
C474        C  0.91734821  0.33643942  0.33475422     0.21400
C475        C  0.90651492  0.31296652  0.36742299    -0.20600
C476        C  0.89652465  0.27692457  0.35830012    -0.11400
C477        C  0.93643248  0.37088978  0.34763248    -0.15600
C478        C  0.94606216  0.39807916  0.32131139    -0.29500
C479        C  0.89034769  0.22473230  0.63836008    -0.03700
C480        C  0.90068354  0.19886677  0.66616073    -0.40300
H481        H  0.90321194  0.27907993  0.58136399     0.12500
H482        H  0.92159387  0.34234709  0.59693700     0.12100
H483        H  0.90740429  0.32207141  0.40050272     0.11600
H484        H  0.88884235  0.25964787  0.38458411     0.11800
H485        H  0.94783729  0.37164654  0.37983482     0.14600
H486        H  0.93423718  0.40003373  0.28956981     0.13300
H487        H  0.87718341  0.21670856  0.60846806     0.11000
H488        H  0.91601157  0.20632734  0.36342625     0.13000
C489        C  0.93768591  0.66414171  0.29894464     0.19100
C490        C  0.95516758  0.69725995  0.61286442    -0.19000
C491        C  0.93884500  0.73126534  0.61965432    -0.11300
C492        C  0.90588213  0.73388791  0.31197690     0.21400
C493        C  0.88952886  0.70259697  0.32924790    -0.20600
C494        C  0.90529037  0.66808427  0.32308033    -0.11400
C495        C  0.88813562  0.76998564  0.31931248    -0.15600
C496        C  0.90499033  0.80273266  0.64900235    -0.29500
C497        C  0.95852697  0.62934929  0.29512593    -0.03700
C498        C  0.95364679  0.59976747  0.31978382    -0.40300
H499        H  0.98065550  0.69594346  0.59496765     0.12500
H500        H  0.95166592  0.75486079  0.60562341     0.12100
H501        H  0.86466827  0.70493121  0.34818619     0.11600
H502        H  0.89219788  0.64491381  0.33760078     0.11800
H503        H  0.85961562  0.76935886  0.32961154     0.14600
H504        H  0.93444211  0.80397031  0.64357737     0.13300
H505        H  0.98620432  0.63267055  0.60686316     0.11000
H506        H  0.92921177  0.59648932  0.33908510     0.13000
C507        C  0.26069139  0.10026194  0.32553336     0.19100
C508        C  0.28961045  0.12117547  0.34337993    -0.19000
C509        C  0.32639092  0.11305924  0.33401088    -0.11300
C510        C  0.33410998  0.08204715  0.64416427     0.21400
C511        C  0.30531123  0.06208045  0.62487789    -0.20600
C512        C  0.26860544  0.07049033  0.63352743    -0.11400
C513        C  0.37228499  0.06921018  0.63677688    -0.15600
C514        C  0.39883194  0.07099016  0.66689583    -0.29500
C515        C  0.22210455  0.11112142  0.33490932    -0.03700
C516        C  0.19083208  0.09156073  0.65847534    -0.40300
H517        H  0.28372089  0.14393409  0.36478208     0.12500
H518        H  0.34791978  0.12951223  0.34851959     0.12100
H519        H  0.31122146  0.03932849  0.60356697     0.11600
H520        H  0.24747322  0.05461983  0.61743967     0.11800
H521        H  0.37583071  0.04932003  0.61098926     0.14600
H522        H  0.39716495  0.09074358  0.35612777     0.13300
H523        H  0.21878539  0.13748054  0.35061609     0.11000
H524        H  0.19298791  0.06375211  0.64672615     0.13000
C525        C  0.32944444  0.92504986  0.70267849     0.19100
C526        C  0.29748213  0.94395595  0.71488122    -0.19000
C527        C  0.26268552  0.93162037  0.70209141    -0.11300
C528        C  0.25904660  0.89978717  0.67683898     0.21400
C529        C  0.29102472  0.88029329  0.66568094    -0.20600
C530        C  0.32591770  0.89281677  0.67824746    -0.11400
C531        C  0.22259921  0.88457539  0.66385131    -0.15600
C532        C  0.19025857  0.90270606  0.66617920    -0.29500
C533        C  0.36556165  0.94179732  0.71350657    -0.03700
C534        C  0.39504140  0.94010373  0.68740257    -0.40300
H535        H  0.29947610  0.96897485  0.73365028     0.12500
H536        H  0.23892989  0.94694987  0.71260914     0.12100
H537        H  0.28902042  0.85525028  0.64694553     0.11600
H538        H  0.34991393  0.87728273  0.66886137     0.11800
H539        H  0.22287750  0.85666197  0.65204203     0.14600
H540        H  0.18978323  0.93141909  0.67486704     0.13300
H541        H  0.36533279  0.96294350  0.73827352     0.11000
H542        H  0.39610407  0.92047372  0.32733318     0.13000
C543        C  0.66084940  0.92499032  0.35654066     0.19100
C544        C  0.68676221  0.94640473  0.37906314    -0.19000
C545        C  0.72424767  0.94370475  0.36998858    -0.11300
C546        C  0.73541732  0.91800292  0.67141871     0.21400
C547        C  0.71013353  0.89408631  0.65128210    -0.20600
C548        C  0.67230288  0.89738034  0.65913525    -0.11400
C549        C  0.77565545  0.91586901  0.66383358    -0.15600
C550        C  0.79310168  0.88410331  0.65701547    -0.29500
C551        C  0.62123380  0.93312113  0.36349649    -0.03700
C552        C  0.59602516  0.93201835  0.65962191    -0.40300
H553        H  0.67787951  0.96628257  0.40274549     0.12500
H554        H  0.74354697  0.96101081  0.38745433     0.12100
H555        H  0.71940467  0.87347528  0.62871187     0.11600
H556        H  0.65337011  0.87906131  0.64274238     0.11800
H557        H  0.79194958  0.94055096  0.66830237     0.14600
H558        H  0.77789677  0.85980500  0.32141297     0.13300
H559        H  0.61501710  0.95056985  0.39095630     0.11000
H560        H  0.60299237  0.91702556  0.63063257     0.13000
C561        C  0.73602112  0.10677722  0.63847793     0.19100
C562        C  0.70491023  0.12233423  0.65810615    -0.19000
C563        C  0.66944833  0.10937263  0.64844354    -0.11300
C564        C  0.66447054  0.08085518  0.61835769     0.21400
C565        C  0.69549127  0.06704903  0.59684511    -0.20600
C566        C  0.73082040  0.07972502  0.60679191    -0.10600
C567        C  0.62874447  0.06166137  0.61129910    -0.15600
C568        C  0.59989805  0.06297565  0.63840608    -0.29500
C569        C  0.77336632  0.12019461  0.65047198    -0.03700
C570        C  0.80409644  0.09966300  0.64700818    -0.40300
H571        H  0.70973708  0.14490914  0.34747632     0.12500
H572        H  0.64769866  0.12282908  0.33118045     0.12100
H573        H  0.69256323  0.04532785  0.57322935     0.11600
H574        H  0.75396401  0.06821563  0.58959221     0.11800
H575        H  0.62860084  0.04023162  0.58687451     0.14600
H576        H  0.59982764  0.08459817  0.33310767     0.13300
H577        H  0.77513620  0.14767299  0.66365829     0.11000
H578        H  0.80184443  0.07120575  0.63728645     0.13000
C579        C  0.57530317  0.03060058  0.64255286    -0.10400
C580        C  0.59264956  0.99530304  0.97944473    -0.04300
C581        C  0.57309060  0.96391112  0.98969385    -0.10400
C582        C  0.53468328  0.96568102  0.99553137     0.10500
C583        C  0.51671814  0.99989388  0.99220535    -0.02200
C584        C  0.53697310  0.03284447  0.65023425     0.10300
C585        C  0.51829305  0.06629629  0.64875043    -0.12200
C586        C  0.48044531  0.06814380  0.65594895    -0.12200
C587        C  0.46008964  0.03665923  0.66523908     0.10300
C588        C  0.47828477  0.00245223  0.66688856    -0.02200
C589        C  0.51395288  0.93449645  0.00513286    -0.12300
C590        C  0.47602346  0.93674039  0.01155202    -0.12300
C591        C  0.45762817  0.97026528  0.00876279     0.10500
C592        C  0.41931176  0.97301016  0.01610786    -0.10400
C593        C  0.40272458  0.00642896  0.68239940    -0.04300
C594        C  0.42181778  0.03811588  0.67229443    -0.10400
H595        H  0.53277879  0.09129194  0.64155148     0.07800
H596        H  0.46717327  0.09449698  0.65431884     0.07800
H597        H  0.52701042  0.90813246  0.00779634     0.08000
H598        H  0.46124905  0.91200747  0.01921585     0.08000
H599        H  0.62232792  0.99331871  0.97626269     0.04400
H600        H  0.37316307  0.00824938  0.68670773     0.04400
C601        C  0.83494520  0.88288424  0.98973370     0.86900
C602        C  0.85336547  0.89785206  0.69609380    -0.53300
C603        C  0.89080891  0.89511841  0.69579623     0.09800
C604        C  0.90639568  0.87582876  0.98912059     0.20800
C605        C  0.85361473  0.90178856  0.95213196    -0.54100
C606        C  0.89110907  0.89816266  0.95179052     0.09900
C607        C  0.84790233  0.84325657  0.98695250    -0.53600
C608        C  0.88531546  0.83920598  0.98674899     0.10500
H609        H  0.83838329  0.91172852  0.72154183     0.15000
H610        H  0.93685430  0.87313648  0.98884131     0.00800
H611        H  0.83857353  0.91713210  0.92837573     0.15300
H612        H  0.82868633  0.82067591  0.98404812     0.15100
C613        C  0.91440868  0.91658711  0.92016850     0.42900
N614        N  0.93000301  0.95306799  0.87058667     0.01800
C615        C  0.08786203  0.94801667  0.74518386    -0.06100
H616        H  0.11448680  0.96486467  0.90649576     0.07300
C617        C  0.04059092  0.08646403  0.90103041    -0.06500
Co618      Co  0.99763424  0.92819322  0.82370026     0.74200
N619        N  0.06467122  0.95634520  0.86951844    -0.25600
Co620      Co  0.06380652  0.99693753  0.82304340     0.74100
C621        C  0.07471151  0.07554108  0.92153588     0.43000
N622        N  0.95357472  0.06059802  0.87063246     0.01400
N623        N  0.06219124  0.03794245  0.87037440     0.01500
N624        N  0.04508214  0.90310480  0.74833379    -0.46500
H625        H  0.96499434  0.88005698  0.90822703     0.07200
N626        N  0.03946263  0.93028711  0.86949931     0.01800
N627        N  0.06138136  0.03767567  0.77632983     0.01500
C628        C  0.07432714  0.07674874  0.72813017     0.43100
N629        N  0.92802817  0.03498240  0.87164194    -0.25100
C630        C  0.94873859  0.90259885  0.74633793    -0.06000
N631        N  0.90410254  0.94667602  0.89916364    -0.46200
N632        N  0.08639600  0.04592681  0.74694628    -0.46400
C633        C  0.91371470  0.91408453  0.72816131     0.42900
N634        N  0.03854502  0.92922547  0.77694783     0.01800
N635        N  0.92676034  0.03375480  0.77772023    -0.25100
N636        N  0.95649398  0.92842767  0.87075493    -0.25600
N637        N  0.95235690  0.05936179  0.77811390     0.01400
H638        H  0.87691029  0.02653595  0.74020898     0.07300
H639        H  0.02303267  0.11080051  0.74387178     0.07300
N640        N  0.06348949  0.95553305  0.77630998    -0.25700
N641        N  0.03508729  0.06182122  0.86995709    -0.25300
N642        N  0.92919576  0.95172233  0.77814399     0.01800
C643        C  0.07754784  0.91496370  0.91852891     0.43200
C644        C  0.90443499  0.04337454  0.90353512    -0.06500
N645        N  0.03422496  0.06149173  0.77770236    -0.25300
H646        H  0.02343570  0.10996213  0.90739872     0.07300
N647        N  0.04647396  0.90478744  0.89779408    -0.46500
H648        H  0.87980408  0.02832960  0.91141869     0.07300
C649        C  0.91506302  0.07581776  0.72869470     0.43000
C650        C  0.94923502  0.90434630  0.90163701    -0.06000
Co651      Co  0.92780581  0.99325481  0.82451768     0.73800
N652        N  0.94851113  0.08683942  0.89939326    -0.46200
C653        C  0.07558797  0.91316627  0.72697905     0.43300
N654        N  0.90317027  0.94451069  0.74954615    -0.46200
Co655      Co  0.99381099  0.06103299  0.82403859     0.73900
C656        C  0.03992998  0.08695782  0.74849940    -0.06500
C657        C  0.08974946  0.94928178  0.90005837    -0.06100
N658        N  0.95588573  0.92729281  0.77747418    -0.25600
N659        N  0.08694793  0.04529543  0.90077800    -0.46400
H660        H  0.11232778  0.96367117  0.73824780     0.07300
C661        C  0.90194140  0.04156464  0.74696277    -0.06500
Cl662      Cl  0.99576296  0.99478706  0.82377130    -0.49500
C663        C  0.91822706  0.07801681  0.92161313     0.43000
H664        H  0.96483244  0.87847567  0.73925094     0.07200
N665        N  0.94614557  0.08502766  0.74990326    -0.46200
C666        C  0.89247804  0.15857320  0.99559461     0.86900
C667        C  0.90467626  0.13709308  0.70007864    -0.53300
C668        C  0.89725339  0.10064257  0.69802550     0.09800
C669        C  0.87758822  0.08881918  0.99150730     0.20800
C670        C  0.90975846  0.13888368  0.95693672    -0.54100
C671        C  0.90195228  0.10225292  0.95469005     0.09900
C672        C  0.85129364  0.15005111  0.99267660    -0.53600
C673        C  0.84319809  0.11357048  0.99028152     0.10500
H674        H  0.92041909  0.14945843  0.72610199     0.15000
H675        H  0.87151055  0.05913820  0.98976988     0.00800
H676        H  0.92716240  0.15256259  0.93397292     0.15300
H677        H  0.83081115  0.17143480  0.99091714     0.15100
C678        C  0.10924445  0.83547268  0.98701965     0.86900
C679        C  0.09016211  0.85316010  0.69282977    -0.53300
C680        C  0.09420966  0.89025221  0.69456211     0.09800
C681        C  0.11700068  0.90617280  0.98993141     0.20800
C682        C  0.09299552  0.85470498  0.94820863    -0.54100
C683        C  0.09664474  0.89176075  0.94970071     0.09900
C684        C  0.14930168  0.84811570  0.98944330    -0.53600
C685        C  0.15383247  0.88513348  0.99137781     0.10500
H686        H  0.07430918  0.83804712  0.71605230     0.15000
H687        H  0.12000658  0.93631197  0.99122319     0.00800
H688        H  0.07847503  0.84037035  0.92257822     0.15300
H689        H  0.17156139  0.82865930  0.99111788     0.15100
C690        C  0.10747748  0.15519191  0.99142264     0.86900
C691        C  0.09084697  0.13532707  0.95273030    -0.53300
C692        C  0.09532970  0.09843916  0.95264045     0.09800
C693        C  0.11714242  0.08461378  0.99162155     0.20800
C694        C  0.09020610  0.13694292  0.69813608    -0.54100
C695        C  0.09487190  0.09985601  0.69802577     0.09900
C696        C  0.14777660  0.14402007  0.99158963    -0.53600
C697        C  0.15339310  0.10715410  0.99209137     0.10500
H698        H  0.07545069  0.14930120  0.92810946     0.15000
H699        H  0.12096858  0.05458442  0.99155418     0.00800
H700        H  0.07422519  0.15155105  0.72213576     0.15300
H701        H  0.16966140  0.16406192  0.98960612     0.15100
C702        C  0.98759058  0.57626016  0.65758361    -0.10400
C703        C  0.02112111  0.59314645  0.66774380    -0.04300
C704        C  0.05248724  0.57347671  0.67845338    -0.10400
C705        C  0.05038361  0.53523757  0.68112376     0.10500
C706        C  0.01660850  0.51722246  0.67108314    -0.02200
C707        C  0.98505631  0.53773713  0.65922570     0.10300
C708        C  0.95223394  0.51913284  0.64878106    -0.12200
C709        C  0.95028707  0.48108131  0.64998357    -0.12200
C710        C  0.98100921  0.46030521  0.66180817     0.10300
C711        C  0.01450009  0.47860776  0.67270634    -0.02200
C712        C  0.08114326  0.51460012  0.69299760    -0.12300
C713        C  0.07899449  0.47675572  0.69489935    -0.12300
C714        C  0.04607844  0.45832612  0.68480244     0.10500
C715        C  0.04399150  0.42000604  0.68553222    -0.10400
C716        C  0.01086462  0.40256202  0.67547792    -0.04300
C717        C  0.97931229  0.42174536  0.66376130    -0.10400
H718        H  0.92790423  0.53385483  0.63925515     0.07800
H719        H  0.92439162  0.46799709  0.64167846     0.07800
H720        H  0.10713611  0.52760138  0.70078635     0.08000
H721        H  0.10345082  0.46196248  0.70413364     0.08000
H722        H  0.02284021  0.62268969  0.66838117     0.04400
H723        H  0.00992987  0.37298631  0.67590795     0.04400
C724        C  0.11386744  0.26011909  0.68140695     0.19100
C725        C  0.11276461  0.28337853  0.71739244    -0.19000
C726        C  0.10648993  0.32081230  0.71275927    -0.11300
C727        C  0.10171289  0.33556215  0.67176008     0.21400
C728        C  0.10587930  0.31224862  0.96812249    -0.20600
C729        C  0.11269423  0.27515360  0.97276763    -0.11400
C730        C  0.08671857  0.37256793  0.66429301    -0.15600
C731        C  0.07557837  0.39600925  0.69503639    -0.29500
C732        C  0.11661218  0.22005751  0.68677980    -0.03700
C733        C  0.10190590  0.19590101  0.98947594    -0.40300
H734        H  0.11503929  0.27230489  0.74923569     0.12500
H735        H  0.10382763  0.33745151  0.74133710     0.12100
H736        H  0.10420103  0.32311240  0.93612776     0.11600
H737        H  0.11722963  0.25865273  0.94432478     0.11800
H738        H  0.07806919  0.37822187  0.63167886     0.14600
H739        H  0.08329548  0.39277416  0.72824487     0.13300
H740        H  0.13078397  0.20967254  0.71470634     0.11000
H741        H  0.08669648  0.20639941  0.96238426     0.13000
C742        C  0.11981496  0.73199679  0.67609657     0.19100
C743        C  0.11605346  0.70998245  0.71208145    -0.19000
C744        C  0.11191193  0.67215731  0.70727187    -0.11300
C745        C  0.11213000  0.65574297  0.66622646     0.21400
C746        C  0.12100845  0.67787723  0.96525265    -0.20600
C747        C  0.12503048  0.71554673  0.97022768    -0.11400
C748        C  0.09802131  0.61825836  0.65756643    -0.15600
C749        C  0.08608486  0.59529112  0.68771622    -0.29500
C750        C  0.11987631  0.77222463  0.68126049    -0.03700
C751        C  0.10576906  0.79445288  0.98455505    -0.40300
H752        H  0.11428828  0.72223794  0.74368325     0.12500
H753        H  0.10645646  0.65649572  0.73554608     0.12100
H754        H  0.12354770  0.66589996  0.93356946     0.11600
H755        H  0.13166867  0.73156161  0.94246511     0.11800
H756        H  0.08804586  0.61389033  0.95753234     0.14600
H757        H  0.09429216  0.59847250  0.72087881     0.13300
H758        H  0.13150720  0.78413754  0.71032121     0.11000
H759        H  0.09299953  0.78229460  0.95626107     0.13000
C760        C  0.89708795  0.26429982  0.64760935     0.19100
C761        C  0.90524025  0.28833118  0.94803776    -0.19000
C762        C  0.91410632  0.32505604  0.62323332    -0.11300
C763        C  0.91699132  0.33774766  0.66588552     0.21400
C764        C  0.90725019  0.31402878  0.69877816    -0.20600
C765        C  0.89726700  0.27795777  0.68984871    -0.11400
C766        C  0.93587375  0.37242365  0.67853018    -0.15600
C767        C  0.94642103  0.39918716  0.65204743    -0.29500
C768        C  0.89110724  0.22452250  0.97207908    -0.03700
C769        C  0.90130664  0.19891838  0.00024652    -0.40300
H770        H  0.90598934  0.27848692  0.91526046     0.12500
H771        H  0.92308317  0.34204290  0.93115530     0.12100
H772        H  0.90896116  0.32297314  0.73186391     0.11600
H773        H  0.89038898  0.26061202  0.71636822     0.11800
H774        H  0.94649637  0.37367173  0.71109036     0.14600
H775        H  0.93554725  0.40078133  0.61981449     0.13300
H776        H  0.87846168  0.21623651  0.94196807     0.11000
H777        H  0.91572685  0.20719999  0.69469582     0.13000
C778        C  0.93962358  0.66547045  0.62980716     0.19100
C779        C  0.95025734  0.69679187  0.94300856    -0.19000
C780        C  0.93430241  0.73096820  0.94991765    -0.11300
C781        C  0.90636108  0.73438194  0.64368901     0.21400
C782        C  0.88999704  0.70248034  0.65936021    -0.20600
C783        C  0.90648298  0.66836173  0.65276492    -0.11400
C784        C  0.88786178  0.77003459  0.65128953    -0.15600
C785        C  0.90419020  0.80340385  0.98153905    -0.29500
C786        C  0.96102730  0.63107091  0.62558494    -0.03700
C787        C  0.95583444  0.60082125  0.64896208    -0.40300
H788        H  0.97371814  0.69476897  0.92181945     0.12500
H789        H  0.94524518  0.75399694  0.93281226     0.12100
H790        H  0.86457054  0.70401905  0.67733259     0.11600
H791        H  0.89331304  0.64466137  0.66601384     0.11800
H792        H  0.85900981  0.76881848  0.65993080     0.14600
H793        H  0.93322834  0.80409552  0.97361290     0.13300
H794        H  0.98363547  0.63326204  0.94053654     0.11000
H795        H  0.93087326  0.59684630  0.66726113     0.13000
C796        C  0.25980047  0.09931768  0.66170559     0.19100
C797        C  0.28864550  0.11979203  0.68039338    -0.19000
C798        C  0.32547112  0.11121698  0.67189029    -0.11300
C799        C  0.33404689  0.08114448  0.97181699     0.21400
C800        C  0.30500396  0.06009131  0.95474338    -0.20600
C801        C  0.26840564  0.06862821  0.96394813    -0.11400
C802        C  0.37218308  0.06819652  0.96438764    -0.15600
C803        C  0.39900838  0.07099327  0.99410585    -0.29500
C804        C  0.22122174  0.11089283  0.66977036    -0.03700
C805        C  0.19082825  0.09080920  0.98948152    -0.40300
H806        H  0.28266485  0.14259801  0.70161631     0.12500
H807        H  0.34694537  0.12745802  0.68689399     0.12100
H808        H  0.31066695  0.03634571  0.93485366     0.11600
H809        H  0.24707807  0.05177825  0.94972174     0.11800
H810        H  0.37542256  0.04730002  0.93962074     0.14600
H811        H  0.39623929  0.08907577  0.69441062     0.13300
H812        H  0.21792985  0.13735796  0.68513781     0.11000
H813        H  0.19271114  0.06284586  0.97815355     0.13000
C814        C  0.32879374  0.92755900  0.03734634     0.19100
C815        C  0.29702553  0.94849965  0.04439475    -0.19000
C816        C  0.26239524  0.93561928  0.03171926    -0.11300
C817        C  0.25875224  0.90113130  0.01188980     0.21400
C818        C  0.29057190  0.87982878  0.00582777    -0.20600
C819        C  0.32530387  0.89292033  0.01818127    -0.11400
C820        C  0.22245787  0.88528152  0.99919512    -0.15600
C821        C  0.19009388  0.90351096  0.99871546    -0.29500
C822        C  0.36492464  0.94427824  0.04778284    -0.03700
C823        C  0.39444617  0.94110524  0.02194369    -0.40300
H824        H  0.29910951  0.97548191  0.05893662     0.12500
H825        H  0.23883322  0.95271750  0.03802183     0.12100
H826        H  0.28858143  0.85286458  0.99127158     0.11600
H827        H  0.34924295  0.87600455  0.01281135     0.11800
H828        H  0.22292723  0.85668749  0.99028047     0.14600
H829        H  0.18939413  0.93257392  0.00516365     0.13300
H830        H  0.36460750  0.96670334  0.07098876     0.11000
H831        H  0.39666796  0.91943955  0.66231745     0.13000
C832        C  0.65923639  0.92448885  0.68742142     0.19100
C833        C  0.68464759  0.94770556  0.70811603    -0.19000
C834        C  0.72224323  0.94480222  0.69976358    -0.11300
C835        C  0.73620216  0.92030543  0.00462347     0.21400
C836        C  0.71091126  0.89718268  0.98331645    -0.20600
C837        C  0.67315519  0.89979966  0.99185201    -0.11400
C838        C  0.77639213  0.91802877  0.99710887    -0.15600
C839        C  0.79348108  0.88604974  0.99050893    -0.29500
C840        C  0.61952153  0.93249237  0.69293996    -0.03700
C841        C  0.59571804  0.93104632  0.99650083    -0.40300
H842        H  0.67527244  0.96910981  0.72961863     0.12500
H843        H  0.74115824  0.96352636  0.71564513     0.12100
H844        H  0.72018079  0.87755761  0.95958167     0.11600
H845        H  0.65433510  0.88188110  0.97471673     0.11800
H846        H  0.79288016  0.94258130  0.00171715     0.14600
H847        H  0.77719632  0.85902224  0.65503919     0.13300
H848        H  0.61240385  0.94975314  0.72025827     0.11000
H849        H  0.60149739  0.91484274  0.96808382     0.13000
C850        C  0.73740286  0.10485834  0.97529814     0.19100
C851        C  0.70623187  0.11946782  0.99571826    -0.19000
C852        C  0.67088226  0.10633730  0.98581976    -0.11300
C853        C  0.66608520  0.07860654  0.95466638     0.21400
C854        C  0.69720407  0.06550595  0.93275997    -0.20600
C855        C  0.73241354  0.07836626  0.94291571    -0.10600
C856        C  0.63047579  0.05941430  0.94680748    -0.15600
C857        C  0.60071994  0.06149374  0.97249475    -0.29500
C858        C  0.77459288  0.11877433  0.98702488    -0.03700
C859        C  0.80553537  0.09874347  0.98268508    -0.40300
H860        H  0.70814349  0.14391621  0.68184140     0.12500
H861        H  0.64632451  0.12135765  0.66516106     0.12100
H862        H  0.69444879  0.04431074  0.90847403     0.11600
H863        H  0.75558082  0.06755478  0.92523243     0.11800
H864        H  0.63090910  0.03758919  0.92287999     0.14600
H865        H  0.59783308  0.08416243  0.66278008     0.13300
H866        H  0.77613089  0.14616912  0.00050411     0.11000
H867        H  0.80356061  0.07032743  0.97273227     0.13000
loop_ 
_geom_bond_atom_site_label_1 
_geom_bond_atom_site_label_2 
_geom_bond_distance 
_geom_bond_site_symmetry_2 
_ccdc_geom_bond_type 
C1            C6   1.415       .  A
C1          C580   1.397   1_545  A
C1          C857   1.491       .  S
C2            C3   1.393       .  A
C2          C290   1.396   1_565  A
C2           H21   1.086       .  S
C3            C4   1.410       .  A
C3          C263   1.481       .  S
C4            C5   1.423   1_565  A
C4           C11   1.404       .  A
C5          C295   1.424       .  A
C5          C299   1.418       .  A
C6            C7   1.405       .  A
C6          C583   1.425   1_545  A
C7            C8   1.395       .  A
C7           H17   1.083       .  S
C8            C9   1.404       .  A
C8           H18   1.083       .  S
C9           C10   1.422       .  A
C9           C16   1.409   1_556  A
C10         C583   1.419   1_545  A
C10         C591   1.426   1_546  A
C11          C12   1.395       .  A
C11          H19   1.083       .  S
C12          C13   1.406       .  A
C12          H20   1.083       .  S
C13          C14   1.414       .  A
C13         C299   1.424   1_565  A
C14         C304   1.396   1_565  A
C14         C245   1.488       .  S
C15          C16   1.393       .  A
C15         C592   1.397   1_545  A
C15          H22   1.085       .  S
C16         C803   1.481   1_554  S
C23          C29   1.531       .  S
C23          C27   1.534       .  S
C23         C261   1.513       .  S
C23         C313   1.533       .  S
C24         C601   1.532   1_554  S
C24          H31   1.086       .  S
C24          C25   1.365       .  D
C25          C55   1.475       .  S
C25         C604   1.542   1_554  S
C26          C30   1.546       .  S
C26          C28   1.541       .  S
C26         C314   1.543       .  S
C26          H32   1.111       .  S
C27          H33   1.086       .  S
C27          C28   1.369       .  D
C28          C35   1.477       .  S
C29          H34   1.084       .  S
C29          C30   1.368       .  D
C30         C207   1.492       .  S
C35          N53   1.348       .  A
C35          C72   1.462       .  S
N36          N53   1.323       .  A
N36          N58   1.322       .  A
N36         Co73   2.081       .  S
C37          H82   1.081       .  S
C37          N62   1.345       .  A
C37          C75   1.461       .  S
H38          C79   1.081       .  S
C39          H68   1.081       .  S
C39          N63   1.332       .  A
C39          C43   1.454       .  S
Co40         N58   2.102       .  S
Co40         N48   2.085   1_655  S
Co40         N80   2.094       .  S
Co40         N56   2.088   1_655  S
Co40        Cl84   2.444       .  S
N41          C79   1.347       .  A
N41          N48   1.322       .  A
N41         Co42   2.100       .  S
Co42         N45   2.100   1_565  S
Co42         N62   2.095       .  S
Co42         N49   2.112   1_565  S
Co42        Cl84   2.474   1_455  S
C43         C114   1.479       .  S
C43          N81   1.355       .  A
N44          N51   1.320       .  A
N44          N74   1.321       .  A
N44         Co77   2.070       .  S
N45          N63   1.320       .  A
N45          N81   1.332       .  A
N46          C75   1.348       .  A
N46          N56   1.324       .  A
H47          C72   1.082       .  S
N48          N69   1.322       .  A
N49          N67   1.320       .  A
N49          N54   1.333       .  A
C50         C117   1.482       .  S
C50          N54   1.357       .  A
C50          C78   1.452       .  S
N51          C66   1.349       .  A
N51         Co73   2.106   1_545  S
C52          H86   1.082       .  S
C52          N80   1.345       .  A
C52          C55   1.459       .  S
C55          N76   1.349       .  A
N56          N62   1.322       .  A
N57          C83   1.351       .  A
N57          N59   1.320       .  A
N57         Co73   2.101   1_545  S
N58          C72   1.346       .  A
N59          N87   1.319       .  A
N59         Co77   2.074       .  S
H60          C83   1.080       .  S
H61          C78   1.082       .  S
N63         Co77   2.072   1_455  S
N64          N76   1.323       .  A
N64          N80   1.322       .  A
N64         Co73   2.087       .  S
C65         C105   1.477       .  S
C65          N69   1.349       .  A
C65          C79   1.462       .  S
C66          H70   1.081       .  S
C66          C85   1.468       .  S
N67          C78   1.334       .  A
N67         Co77   2.070   1_455  S
C71          C90   1.479       .  S
C71          N87   1.346       .  A
C71          C83   1.467       .  S
Co73        Cl84   2.468       .  S
N74          C85   1.345       .  A
C75         C102   1.475       .  S
Co77        Cl84   2.432   1_545  S
C85          C93   1.478       .  S
C88          C94   1.528       .  S
C88          C92   1.535       .  S
C88         C191   1.516       .  S
C88         C378   1.529       .  S
C89         C666   1.531   1_554  S
C89          H96   1.086       .  S
C89          C90   1.364       .  D
C90         C669   1.542   1_554  S
C91          C95   1.548       .  S
C91          C93   1.541       .  S
C91         C379   1.541       .  S
C91          H97   1.111       .  S
C92          H98   1.086       .  S
C92          C93   1.373       .  D
C94          H99   1.084       .  S
C94          C95   1.370       .  D
C95         C281   1.488       .  S
C100        C106   1.526       .  S
C100        C104   1.532       .  S
C100        C173   1.511       .  S
C100        C390   1.534       .  S
C101        C678   1.534   1_554  S
C101        H108   1.086       .  S
C101        C102   1.369       .  D
C102        C681   1.542   1_554  S
C103        C107   1.547       .  S
C103        C105   1.543       .  S
C103        C391   1.543       .  S
C103        H109   1.111       .  S
C104        H110   1.086       .  S
C104        C105   1.366       .  D
C106        H111   1.082       .  S
C106        C107   1.368       .  D
C107        C243   1.492       .  S
C112        C113   1.526       .  S
C112        C118   1.520       .  S
C112        C155   1.509       .  S
C112        C405   1.529       .  S
C113        H120   1.086       .  S
C113        C114   1.364       .  D
C114        C115   1.546       .  S
C115        C119   1.553       .  S
C115        C406   1.548       .  S
C115        H121   1.111       .  S
C116        C690   1.530   1_554  S
C116        H122   1.086       .  S
C116        C117   1.372       .  D
C117        C693   1.547   1_554  S
C118        H123   1.084       .  S
C118        C119   1.368       .  D
C119        C227   1.489       .  S
C124        C125   1.398   1_656  A
C124        C129   1.418       .  A
C124        C209   1.493       .  S
C125        C126   1.394       .  A
C125        H144   1.085       .  S
C126        C127   1.410       .  A
C126        C171   1.484       .  S
C127        C128   1.424       .  A
C127        C134   1.404       .  A
C128        C129   1.425   1_454  A
C128        C133   1.421       .  A
C129        C130   1.407       .  A
C130        C131   1.398       .  A
C130        H140   1.081       .  S
C131        C132   1.405       .  A
C131        H141   1.084       .  S
C132        C133   1.426   1_656  A
C132        C139   1.418       .  A
C133        C136   1.423       .  A
C134        C135   1.394       .  A
C134        H142   1.082       .  S
C135        C136   1.405       .  A
C135        H143   1.083       .  S
C136        C137   1.410       .  A
C137        C138   1.394       .  A
C137        C153   1.482       .  S
C138        C139   1.397   1_454  A
C138        H145   1.086       .  S
C139        C189   1.492       .  S
C146        C147   1.403       .  A
C146        C729   1.406   1_554  A
C146        C154   1.485       .  S
C147        C148   1.402       .  A
C147        H156   1.084       .  S
C148        C149   1.410       .  A
C148        H157   1.080       .  S
C149        C728   1.403   1_554  A
C149        C152   1.485   1_554  S
C150        C151   1.393       .  A
C150        C438   1.403       .  A
C150        H158   1.084       .  S
C151        C435   1.406       .  A
C151        H159   1.082       .  S
C152        H160   1.089       .  S
C152        C153   1.346   1_556  D
C153        H161   1.083       .  S
C154        H162   1.087       .  S
C154        C733   1.345   1_554  D
C155        H163   1.086       .  S
C155        C443   1.346       .  D
C164        C165   1.402       .  A
C164        C747   1.404   1_554  A
C164        C172   1.483       .  S
C165        C166   1.402       .  A
C165        H174   1.082       .  S
C166        C167   1.410       .  A
C166        H175   1.081       .  S
C167        C746   1.404   1_554  A
C167        C170   1.487   1_554  S
C168        C169   1.395       .  A
C168        C456   1.404       .  A
C168        H176   1.083       .  S
C169        C453   1.404       .  A
C169        H177   1.083       .  S
C170        H756   1.088       .  S
C170        C171   1.346   1_556  D
C171        H179   1.084       .  S
C172        H180   1.087       .  S
C172        C751   1.347   1_554  D
C173        H181   1.087       .  S
C173        C461   1.348       .  D
H178        C459   1.088       .  S
C182        C187   1.406   1_556  A
C182        C761   1.406       .  A
C182        C768   1.494       .  S
C183        C471   1.405       .  A
C183        C473   1.407       .  A
C183        H192   1.083       .  S
C184        C185   1.410       .  A
C184        C761   1.408       .  A
C184        H771   1.081       .  S
C185        C186   1.403   1_556  A
C185        C188   1.491   1_556  S
C186        C187   1.396       .  A
C186        H194   1.083       .  S
C187        H195   1.082       .  S
C188        H196   1.088       .  S
C188        C189   1.350   1_554  D
C189        H197   1.084       .  S
C190        C471   1.492       .  S
C190        H198   1.086       .  S
C190        C191   1.349       .  D
C191        H488   1.085       .  S
H193        C473   1.081       .  S
H199        C769   1.086       .  S
C200        C205   1.408       .  A
C200        C779   1.406       .  A
C200        C208   1.490       .  S
C201        C202   1.397       .  A
C201        C489   1.406       .  A
C201        H210   1.084       .  S
C202        C492   1.405       .  A
C202        H211   1.081       .  S
C203        C204   1.406       .  A
C203        C780   1.404       .  A
C203        C206   1.488       .  S
C204        C205   1.402       .  A
C204        H212   1.083   1_556  S
C205        H213   1.081   1_556  S
C206        H214   1.084       .  S
C206        C785   1.353       .  D
C207        H215   1.086       .  S
C207        C495   1.353       .  D
C208        H794   1.088       .  S
C208        C209   1.352       .  D
C209        H217   1.083   1_556  S
H216        C497   1.087       .  S
C218        C219   1.408   1_556  A
C218        C801   1.405       .  A
C218        C226   1.487       .  S
C219        C220   1.400   1_554  A
C219        H228   1.084       .  S
C220        C799   1.404       .  A
C220        H229   1.081   1_556  S
C221        C222   1.405       .  A
C221        C509   1.404       .  A
C221        C224   1.483       .  S
C222        C223   1.396       .  A
C222        H230   1.083       .  S
C223        C507   1.405       .  A
C223        H231   1.080       .  S
C224        H232   1.088       .  S
C224        C225   1.347       .  D
C225        C305   1.481       .  S
C225        H522   1.084       .  S
C226        H234   1.084   1_556  S
C226        C805   1.354       .  D
C227        H235   1.084       .  S
C227        C515   1.354       .  D
H233        C803   1.084   1_554  S
C236        C237   1.404       .  A
C236        C241   1.403       .  A
C236        C244   1.480       .  S
C237        C238   1.396       .  A
C237        H246   1.085       .  S
C238        C239   1.406       .  A
C238        H247   1.079       .  S
C239        C240   1.407       .  A
C239        C242   1.487       .  S
C240        C241   1.399       .  A
C240        H248   1.084       .  S
C241        H249   1.082       .  S
C242        H250   1.082       .  S
C242        C243   1.353       .  D
C243        H251   1.083       .  S
C244        H252   1.088       .  S
C244        C245   1.349       .  D
C245        H542   1.085       .  S
H253        C823   1.086   1_556  S
C254        C255   1.405       .  A
C254        C837   1.406   1_554  A
C254        C262   1.485       .  S
C255        C256   1.395       .  A
C255        H264   1.082       .  S
C256        C835   1.400       .  A
C256        H265   1.084       .  S
C257        C258   1.408       .  A
C257        C545   1.399       .  A
C257        C260   1.482       .  S
C258        C259   1.403       .  A
C258        H266   1.081       .  S
C259        C543   1.407       .  A
C259        H267   1.083       .  S
C260        H268   1.088       .  S
C260        C261   1.343       .  D
C261        H558   1.087       .  S
C262        H270   1.088       .  S
C262        C841   1.346   1_554  D
C263        H271   1.084       .  S
C263        C551   1.347       .  D
H269        C839   1.087       .  S
C272        C273   1.405       .  A
C272        C277   1.404       .  A
C272        C280   1.484       .  S
C273        C274   1.400       .  A
C273        H571   1.084       .  S
C274        C275   1.407       .  A
C274        H572   1.080       .  S
C275        C276   1.405       .  A
C275        C278   1.485       .  S
C276        C277   1.395       .  A
C276        H284   1.084       .  S
C277        H285   1.081       .  S
C278        H286   1.089       .  S
C278        C279   1.348       .  D
C279        C290   1.487       .  S
C279        H576   1.084       .  S
C280        H288   1.085       .  S
C280        C281   1.351       .  D
C281        H289   1.086       .  S
H282        C851   1.083   1_554  S
H283        C852   1.080   1_554  S
H287        C857   1.083       .  S
C290        C295   1.413       .  A
C291        C579   1.397   1_565  A
C291        C292   1.394       .  A
C291        H310   1.086       .  S
C292        C293   1.409       .  A
C292        C552   1.478       .  S
C293        C294   1.421   1_565  A
C293        C300   1.405       .  A
C294        C584   1.425       .  A
C294        C588   1.419       .  A
C295        C296   1.405       .  A
C296        C297   1.394       .  A
C296        H306   1.083       .  S
C297        C298   1.404       .  A
C297        H307   1.083       .  S
C298        C299   1.423       .  A
C298        C305   1.409       .  A
C300        C301   1.395       .  A
C300        H308   1.082       .  S
C301        C302   1.405       .  A
C301        H309   1.084       .  S
C302        C588   1.426   1_565  A
C302        C303   1.415       .  A
C303        C593   1.397   1_565  A
C303        C534   1.490       .  S
C304        C305   1.393       .  A
C304        H311   1.085       .  S
C312        C602   1.532       .  S
C312        C318   1.531       .  S
C312        C316   1.536       .  S
C312        C550   1.513       .  S
C313        H320   1.086       .  S
C313        C314   1.364       .  D
C314        C344   1.476       .  S
C315        C603   1.542       .  S
C315        C319   1.545       .  S
C315        C317   1.540       .  S
C315        H321   1.111       .  S
C316        H322   1.086       .  S
C316        C317   1.370       .  D
C317        C324   1.477       .  S
C318        H323   1.083       .  S
C318        C319   1.368       .  D
C319        C496   1.491       .  S
C324        N342   1.347       .  A
C324        C361   1.463       .  S
N325        N342   1.323       .  A
N325        N347   1.322       .  A
N325       Co362   2.078       .  S
C326        H371   1.081       .  S
C326        N351   1.345       .  A
C326        C364   1.460       .  S
H327        C368   1.081       .  S
C328        H357   1.082       .  S
C328        N352   1.332       .  A
C328        C332   1.454       .  S
Co329       N347   2.106       .  S
Co329       N337   2.083   1_655  S
Co329       N369   2.094       .  S
Co329       N345   2.091   1_655  S
Co329      Cl373   2.441       .  S
N330        C368   1.346       .  A
N330        N337   1.322       .  A
N330       Co331   2.097       .  S
Co331       N334   2.101   1_565  S
Co331       N351   2.094       .  S
Co331       N338   2.109   1_565  S
Co331      Cl373   2.473   1_455  S
C332        C403   1.479       .  S
C332        N370   1.355       .  A
N333        N340   1.320       .  A
N333        N363   1.322       .  A
N333       Co366   2.070       .  S
N334        N352   1.320       .  A
N334        N370   1.332       .  A
N335        C364   1.349       .  A
N335        N345   1.324       .  A
H336        C361   1.083       .  S
N337        N358   1.322       .  A
N338        N356   1.320       .  A
N338        N343   1.333       .  A
C339        C406   1.482       .  S
C339        N343   1.357       .  A
C339        C367   1.453       .  S
N340        C355   1.349       .  A
N340       Co362   2.109   1_545  S
C341        H375   1.083       .  S
C341        N369   1.345       .  A
C341        C344   1.459       .  S
C344        N365   1.350       .  A
N345        N351   1.323       .  A
N346        C372   1.350       .  A
N346        N348   1.319       .  A
N346       Co362   2.095   1_545  S
N347        C361   1.346       .  A
N348        N376   1.318       .  A
N348       Co366   2.072       .  S
H349        C372   1.080       .  S
H350        C367   1.081       .  S
N352       Co366   2.072   1_455  S
N353        N365   1.323       .  A
N353        N369   1.322       .  A
N353       Co362   2.090       .  S
C354        C394   1.474       .  S
C354        N358   1.348       .  A
C354        C368   1.461       .  S
C355        H359   1.081       .  S
C355        C374   1.469       .  S
N356        C367   1.334       .  A
N356       Co366   2.070   1_455  S
C360        C379   1.476       .  S
C360        N376   1.346       .  A
C360        C372   1.465       .  S
Co362      Cl373   2.470       .  S
N363        C374   1.345       .  A
C364        C391   1.476       .  S
Co366      Cl373   2.434   1_545  S
C374        C382   1.480       .  S
C377        C667   1.531       .  S
C377        C383   1.528       .  S
C377        C381   1.536       .  S
C377        C480   1.519       .  S
C378        H385   1.086       .  S
C378        C379   1.363       .  D
C380        C668   1.544       .  S
C380        C384   1.550       .  S
C380        C382   1.541       .  S
C380        H386   1.111       .  S
C381        H387   1.086       .  S
C381        C382   1.373       .  D
C383        H388   1.084       .  S
C383        C384   1.370       .  D
C384        C570   1.490       .  S
C389        C679   1.534       .  S
C389        C395   1.527       .  S
C389        C393   1.531       .  S
C389        C462   1.509       .  S
C390        H397   1.086       .  S
C390        C391   1.369       .  D
C392        C680   1.541       .  S
C392        C396   1.546       .  S
C392        C394   1.542       .  S
C392        H398   1.111       .  S
C393        H399   1.086       .  S
C393        C394   1.365       .  D
C395        H400   1.082       .  S
C395        C396   1.367       .  D
C396        C532   1.491       .  S
C401        C402   1.528       .  S
C401        C407   1.521       .  S
C401        C694   1.529       .  S
C401        C444   1.509       .  S
C402        H409   1.086       .  S
C402        C403   1.365       .  D
C403        C404   1.545       .  S
C404        C408   1.551       .  S
C404        C695   1.545       .  S
C404        H410   1.111       .  S
C405        H411   1.086       .  S
C405        C406   1.372       .  D
C407        H412   1.085       .  S
C407        C408   1.368       .  D
C408        C516   1.488       .  S
C413        C414   1.398   1_655  A
C413        C418   1.418       .  A
C413        C498   1.493       .  S
C414        C415   1.393       .  A
C414        H433   1.086       .  S
C415        C416   1.410       .  A
C415        C460   1.485       .  S
C416        C417   1.424       .  A
C416        C423   1.404       .  A
C417        C418   1.425   1_455  A
C417        C422   1.421       .  A
C418        C419   1.407       .  A
C419        C420   1.399       .  A
C419        H429   1.081       .  S
C420        C421   1.405       .  A
C420        H430   1.084       .  S
C421        C422   1.425   1_655  A
C421        C428   1.418       .  A
C422        C425   1.423       .  A
C423        C424   1.393       .  A
C423        H431   1.082       .  S
C424        C425   1.405       .  A
C424        H432   1.083       .  S
C425        C426   1.409       .  A
C426        C427   1.395       .  A
C426        C442   1.482       .  S
C427        C428   1.397   1_455  A
C427        H434   1.086       .  S
C428        C478   1.492       .  S
C435        C436   1.402       .  A
C435        C443   1.484       .  S
C436        C437   1.402       .  A
C436        H445   1.084       .  S
C437        C438   1.410       .  A
C437        H446   1.080       .  S
C438        C441   1.486       .  S
C439        C727   1.402       .  A
C439        C440   1.393       .  A
C439        H447   1.086       .  S
C440        C724   1.406       .  A
C440        H448   1.081       .  S
C441        H449   1.088       .  S
C441        C442   1.345       .  D
C442        H450   1.083       .  S
C443        H451   1.087       .  S
C444        H452   1.086       .  S
C444        C732   1.346       .  D
C453        C454   1.403       .  A
C453        C461   1.484       .  S
C454        C455   1.402       .  A
C454        H463   1.083       .  S
C455        C456   1.410       .  A
C455        H464   1.080       .  S
C456        C459   1.488       .  S
C457        C745   1.404       .  A
C457        C458   1.395       .  A
C457        H465   1.083       .  S
C458        C742   1.404       .  A
C458        H466   1.083       .  S
C459        C460   1.348       .  D
C460        H468   1.083       .  S
C461        H469   1.088       .  S
C462        H470   1.086       .  S
C462        C750   1.347       .  D
H467        C748   1.088       .  S
C471        C476   1.406       .  A
C472        C760   1.407       .  A
C472        C762   1.408       .  A
C472        H481   1.082       .  S
C473        C474   1.410       .  A
C474        C475   1.403       .  A
C474        C477   1.489       .  S
C475        C476   1.395       .  A
C475        H483   1.083       .  S
C476        H484   1.083       .  S
C477        H485   1.088       .  S
C477        C478   1.349       .  D
C478        H486   1.084       .  S
C479        C760   1.495       .  S
C479        H487   1.085       .  S
C479        C480   1.350       .  D
C480        H777   1.085       .  S
H482        C762   1.081       .  S
C489        C494   1.406       .  A
C489        C497   1.489       .  S
C490        C778   1.406       .  A
C490        C491   1.396       .  A
C490        H499   1.084       .  S
C491        C781   1.405       .  A
C491        H500   1.081       .  S
C492        C493   1.407       .  A
C492        C495   1.490       .  S
C493        C494   1.402       .  A
C493        H501   1.084       .  S
C494        H502   1.080       .  S
C495        H503   1.086       .  S
C496        H504   1.084       .  S
C496        C784   1.353       .  D
C497        C498   1.353       .  D
C498        H506   1.082       .  S
H505        C786   1.089       .  S
C507        C508   1.408       .  A
C507        C515   1.487       .  S
C508        C509   1.400       .  A
C508        H517   1.084       .  S
C509        H518   1.081       .  S
C510        C798   1.404       .  A
C510        C511   1.405       .  A
C510        C513   1.483       .  S
C511        C512   1.395       .  A
C511        H519   1.083       .  S
C512        C796   1.405       .  A
C512        H520   1.081       .  S
C513        H521   1.088       .  S
C513        C514   1.347       .  D
C514        C594   1.480       .  S
C514        H811   1.083       .  S
C515        H523   1.085       .  S
C516        H524   1.082       .  S
C516        C804   1.353       .  D
C525        C526   1.405       .  A
C525        C530   1.404       .  A
C525        C533   1.483       .  S
C526        C527   1.397       .  A
C526        H535   1.084       .  S
C527        C528   1.406       .  A
C527        H536   1.081       .  S
C528        C529   1.408       .  A
C528        C531   1.488       .  S
C529        C530   1.400       .  A
C529        H537   1.084       .  S
C530        H538   1.082       .  S
C531        H539   1.083       .  S
C531        C532   1.353       .  D
C532        H540   1.084       .  S
C533        H541   1.088       .  S
C533        C534   1.349       .  D
C534        H831   1.085       .  S
C543        C544   1.405       .  A
C543        C551   1.486       .  S
C544        C545   1.395       .  A
C544        H553   1.082       .  S
C545        H554   1.085       .  S
C546        C834   1.400       .  A
C546        C547   1.409       .  A
C546        C549   1.483       .  S
C547        C548   1.402       .  A
C547        H555   1.082       .  S
C548        C832   1.406       .  A
C548        H556   1.083       .  S
C549        H557   1.087       .  S
C549        C550   1.343       .  D
C550        H847   1.086       .  S
C551        H559   1.088       .  S
C552        H560   1.084       .  S
C552        C840   1.345       .  D
C561        C562   1.406       .  A
C561        C566   1.404       .  A
C561        C569   1.487       .  S
C562        C563   1.402       .  A
C562        H860   1.083       .  S
C563        C564   1.408       .  A
C563        H861   1.082       .  S
C564        C565   1.406       .  A
C564        C567   1.489       .  S
C565        C566   1.396       .  A
C565        H573   1.083       .  S
C566        H574   1.083       .  S
C567        H575   1.088       .  S
C567        C568   1.350       .  D
C568        C579   1.492       .  S
C568        H865   1.083       .  S
C569        H577   1.085       .  S
C569        C570   1.352       .  D
C570        H578   1.086       .  S
C579        C584   1.416       .  A
C580        C581   1.393       .  A
C580        H599   1.085       .  S
C581        C582   1.409       .  A
C581        C841   1.479       .  S
C582        C583   1.422       .  A
C582        C589   1.405   1_556  A
C584        C585   1.405       .  A
C585        C586   1.395       .  A
C585        H595   1.083       .  S
C586        C587   1.404       .  A
C586        H596   1.083       .  S
C587        C588   1.422       .  A
C587        C594   1.409       .  A
C589        C590   1.395       .  A
C589        H597   1.083       .  S
C590        C591   1.405       .  A
C590        H598   1.083       .  S
C591        C592   1.415       .  A
C592        C823   1.490       .  S
C593        C594   1.393       .  A
C593        H600   1.084       .  S
C601        C607   1.531       .  S
C601        C605   1.533       .  S
C601        C839   1.511       .  S
C602        H609   1.087       .  S
C602        C603   1.364       .  D
C603        C633   1.474       .  S
C604        C608   1.545       .  S
C604        C606   1.540       .  S
C604        H610   1.111       .  S
C605        H611   1.086       .  S
C605        C606   1.369       .  D
C606        C613   1.474       .  S
C607        H612   1.084       .  S
C607        C608   1.367       .  D
C608        C785   1.490       .  S
C613        N631   1.347       .  A
C613        C650   1.462       .  S
N614        N631   1.322       .  A
N614        N636   1.322       .  A
N614       Co651   2.079       .  S
C615        H660   1.081       .  S
C615        N640   1.344       .  A
C615        C653   1.460       .  S
H616        C657   1.080       .  S
C617        H646   1.082       .  S
C617        N641   1.332       .  A
C617        C621   1.454       .  S
Co618       N636   2.100       .  S
Co618       N626   2.086   1_655  S
Co618       N658   2.092       .  S
Co618       N634   2.088   1_655  S
Co618      Cl662   2.444       .  S
N619        C657   1.347       .  A
N619        N626   1.322       .  A
N619       Co620   2.098       .  S
Co620       N623   2.096   1_565  S
Co620       N640   2.092       .  S
Co620       N627   2.108   1_565  S
Co620      Cl662   2.472   1_455  S
C621        C692   1.477       .  S
C621        N659   1.354       .  A
N622        N629   1.319       .  A
N622        N652   1.321       .  A
N622       Co655   2.067       .  S
N623        N641   1.320       .  A
N623        N659   1.331       .  A
N624        C653   1.349       .  A
N624        N634   1.324       .  A
H625        C650   1.083       .  S
N626        N647   1.323       .  A
N627        N645   1.320       .  A
N627        N632   1.332       .  A
C628        C695   1.479       .  S
C628        N632   1.356       .  A
C628        C656   1.451       .  S
N629        C644   1.350       .  A
N629       Co651   2.109   1_545  S
C630        H664   1.083       .  S
C630        N658   1.344       .  A
C630        C633   1.458       .  S
C633        N654   1.350       .  A
N634        N640   1.322       .  A
N635        C661   1.351       .  A
N635        N637   1.320       .  A
N635       Co651   2.102   1_545  S
N636        C650   1.345       .  A
N637        N665   1.320       .  A
N637       Co655   2.078       .  S
H638        C661   1.080       .  S
H639        C656   1.081       .  S
N641       Co655   2.073   1_455  S
N642        N654   1.323       .  A
N642        N658   1.322       .  A
N642       Co651   2.089       .  S
C643        C683   1.477       .  S
C643        N647   1.349       .  A
C643        C657   1.462       .  S
C644        H648   1.081       .  S
C644        C663   1.469       .  S
N645        C656   1.333       .  A
N645       Co655   2.066   1_455  S
C649        C668   1.482       .  S
C649        N665   1.347       .  A
C649        C661   1.467       .  S
Co651      Cl662   2.469       .  S
N652        C663   1.344       .  A
C653        C680   1.474       .  S
Co655      Cl662   2.432   1_545  S
C663        C671   1.480       .  S
C666        C672   1.529       .  S
C666        C670   1.536       .  S
C666        C769   1.518   1_556  S
C667        H674   1.086       .  S
C667        C668   1.364       .  D
C669        C673   1.547       .  S
C669        C671   1.540       .  S
C669        H675   1.111       .  S
C670        H676   1.086       .  S
C670        C671   1.373       .  D
C672        H677   1.085       .  S
C672        C673   1.370       .  D
C673        C859   1.488       .  S
C678        C684   1.527       .  S
C678        C682   1.532       .  S
C678        C751   1.511       .  S
C679        H686   1.086       .  S
C679        C680   1.369       .  D
C681        C685   1.547       .  S
C681        C683   1.544       .  S
C681        H687   1.111       .  S
C682        H688   1.087       .  S
C682        C683   1.366       .  D
C684        H689   1.082       .  S
C684        C685   1.368       .  D
C685        C821   1.493       .  S
C690        C691   1.526       .  S
C690        C696   1.521       .  S
C690        C733   1.510       .  S
C691        H698   1.086       .  S
C691        C692   1.364       .  D
C692        C693   1.546       .  S
C693        C697   1.553       .  S
C693        H699   1.111       .  S
C694        H700   1.086       .  S
C694        C695   1.372       .  D
C696        H701   1.084       .  S
C696        C697   1.369       .  D
C697        C805   1.489       .  S
C702        C703   1.398   1_655  A
C702        C707   1.418       .  A
C702        C787   1.492       .  S
C703        C704   1.393       .  A
C703        H722   1.085       .  S
C704        C705   1.409       .  A
C704        C749   1.483       .  S
C705        C706   1.424       .  A
C705        C712   1.404       .  A
C706        C707   1.424   1_455  A
C706        C711   1.420       .  A
C707        C708   1.407       .  A
C708        C709   1.399       .  A
C708        H718   1.081       .  S
C709        C710   1.405       .  A
C709        H719   1.084       .  S
C710        C711   1.426   1_655  A
C710        C717   1.418       .  A
C711        C714   1.423       .  A
C712        C713   1.393       .  A
C712        H720   1.082       .  S
C713        C714   1.404       .  A
C713        H721   1.083       .  S
C714        C715   1.408       .  A
C715        C716   1.394       .  A
C715        C731   1.480       .  S
C716        C717   1.398   1_455  A
C716        H723   1.086       .  S
C717        C767   1.493       .  S
C724        C725   1.403       .  A
C724        C732   1.486       .  S
C725        C726   1.403       .  A
C725        H734   1.085       .  S
C726        C727   1.410       .  A
C726        H735   1.080       .  S
C727        C730   1.486       .  S
C728        C729   1.394       .  A
C728        H736   1.085       .  S
C729        H737   1.082       .  S
C730        H738   1.090       .  S
C730        C731   1.344       .  D
C731        H739   1.084       .  S
C732        H740   1.087       .  S
C733        H741   1.087       .  S
C742        C743   1.402       .  A
C742        C750   1.482       .  S
C743        C744   1.401       .  A
C743        H752   1.082       .  S
C744        C745   1.410       .  A
C744        H753   1.081       .  S
C745        C748   1.487       .  S
C746        C747   1.396       .  A
C746        H754   1.082       .  S
C747        H755   1.083       .  S
C748        C749   1.346       .  D
C749        H757   1.083       .  S
C750        H758   1.087       .  S
C751        H759   1.087       .  S
C760        C765   1.406       .  A
C761        H770   1.082       .  S
C762        C763   1.410       .  A
C763        C764   1.403       .  A
C763        C766   1.491       .  S
C764        C765   1.395       .  A
C764        H772   1.083       .  S
C765        H773   1.083       .  S
C766        H774   1.089       .  S
C766        C767   1.350       .  D
C767        H775   1.085       .  S
C768        H776   1.086       .  S
C768        C769   1.350   1_556  D
C778        C783   1.407       .  A
C778        C786   1.489       .  S
C779        C780   1.397       .  A
C779        H788   1.083       .  S
C780        H789   1.082       .  S
C781        C782   1.407       .  A
C781        C784   1.488       .  S
C782        C783   1.402       .  A
C782        H790   1.084       .  S
C783        H791   1.080       .  S
C784        H792   1.084       .  S
C785        H793   1.084       .  S
C786        C787   1.352       .  D
C787        H795   1.084       .  S
C796        C797   1.408       .  A
C796        C804   1.486       .  S
C797        C798   1.400       .  A
C797        H806   1.083       .  S
C798        H807   1.082       .  S
C799        C800   1.405       .  A
C799        C802   1.483       .  S
C800        C801   1.396       .  A
C800        H808   1.083       .  S
C801        H809   1.080       .  S
C802        H810   1.089       .  S
C802        C803   1.348       .  D
C804        H812   1.084       .  S
C805        H813   1.083       .  S
C814        C815   1.404       .  A
C814        C819   1.402       .  A
C814        C822   1.480       .  S
C815        C816   1.397       .  A
C815        H824   1.085       .  S
C816        C817   1.406       .  A
C816        H825   1.079       .  S
C817        C818   1.409       .  A
C817        C820   1.490   1_554  S
C818        C819   1.400       .  A
C818        H826   1.085   1_554  S
C819        H827   1.082       .  S
C820        H828   1.082       .  S
C820        C821   1.354       .  D
C821        H829   1.083   1_556  S
C822        H830   1.089       .  S
C822        C823   1.349       .  D
C832        C833   1.404       .  A
C832        C840   1.483       .  S
C833        C834   1.395       .  A
C833        H842   1.083       .  S
C834        H843   1.084       .  S
C835        C836   1.408   1_554  A
C835        C838   1.481   1_554  S
C836        C837   1.401       .  A
C836        H844   1.081       .  S
C837        H845   1.082       .  S
C838        H846   1.088   1_556  S
C838        C839   1.342       .  D
C840        H848   1.088       .  S
C841        H849   1.083       .  S
C850        C851   1.405       .  A
C850        C855   1.404       .  A
C850        C858   1.486       .  S
C851        C852   1.402       .  A
C852        C853   1.408       .  A
C853        C854   1.405       .  A
C853        C856   1.489       .  S
C854        C855   1.396       .  A
C854        H862   1.083       .  S
C855        H863   1.081       .  S
C856        H864   1.088       .  S
C856        C857   1.350       .  D
C858        H866   1.085   1_556  S
C858        C859   1.351       .  D
C859        H867   1.086       .  S
