geometry optimzed in LAMMPS
_audit_creation_date              2020-11-30 
_audit_creation_method            'lammps2cif' 
_symmetry_space_group_name_H-M    'P1' 
_symmetry_Int_Tables_number       1 
_symmetry_cell_setting            triclinic 
loop_ 
_symmetry_equiv_pos_as_xyz 
  x,y,z 
_cell_length_a                    28.10308564 
_cell_length_b                    28.356154538663446 
_cell_length_c                    28.14399331985099 
_cell_angle_alpha                 90.272693068346 
_cell_angle_beta                  90.32070353710606 
_cell_angle_gamma                 90.21338294928144 
loop_ 
_atom_site_label 
_atom_site_type_symbol 
_atom_site_fract_x 
_atom_site_fract_y 
_atom_site_fract_z 
_atom_site_charge 
Zn1        Zn  0.01681886  0.99811761  0.08356662     1.49700
Zn2        Zn  0.10625133  0.98628932  0.01006197     1.49400
Zn3        Zn  0.00047089  0.96231237  0.97939602     1.49100
Zn4        Zn  0.03533577  0.06943773  0.99055480     1.49500
O5          O  0.03943772  0.00422255  0.01613532    -1.83000
O6          O  0.07474757  0.98349807  0.12545227    -0.73700
O7          O  0.11849694  0.93637646  0.96090279    -0.73500
O8          O  0.96183148  0.91684154  0.02375158    -0.73000
O9          O  0.12544493  0.95703904  0.07051954    -0.73700
O10         O  0.97240742  0.93997553  0.09799999    -0.73300
O11         O  0.04385291  0.92078589  0.94010369    -0.73900
O12         O  0.98550408  0.07709318  0.93604359    -0.73300
O13         O  0.15012785  0.04034122  0.99375430    -0.74000
O14         O  0.95815157  0.00343741  0.93660417    -0.73400
O15         O  0.10058040  0.09535165  0.96751405    -0.73900
O16         O  0.00810886  0.10891003  0.04424676    -0.73800
O17         O  0.97725899  0.05831416  0.09687221    -0.73600
C18         C  0.11174548  0.96013531  0.11330580     0.78200
C19         C  0.08848413  0.91253908  0.93704483     0.78700
C20         C  0.95438905  0.91069948  0.06841304     0.77700
C21         C  0.95523472  0.04629817  0.92216419     0.78000
C22         C  0.14282118  0.07975939  0.97357275     0.79200
C23         C  0.97760836  0.09852093  0.07627149     0.78200
C24         C  0.07991252  0.28048555  0.10459921     0.04200
C25         C  0.05141521  0.24944908  0.07683082    -0.11900
C26         C  0.02372870  0.26786490  0.03927244     0.01700
C27         C  0.02762964  0.31512630  0.02810299    -0.10500
C28         C  0.04244675  0.34654860  0.06295530     0.04200
C29         C  0.07323049  0.32995726  0.09901991    -0.09900
H30         H  0.04978700  0.21222214  0.08507468     0.09800
H31         H  0.00744684  0.32819661  0.99785540     0.07300
H32         H  0.09039140  0.35467881  0.12310099     0.07200
C33         C  0.93563107  0.13012560  0.07916983     0.04200
C34         C  0.91474959  0.14052685  0.03501341    -0.11900
C35         C  0.88297361  0.17804757  0.03026320     0.01700
C36         C  0.85940861  0.19258601  0.07159388    -0.10500
C37         C  0.88089936  0.18653300  0.11611174     0.04200
C38         C  0.91911978  0.15388405  0.12040359    -0.09900
H39         H  0.92922348  0.12458161  0.00316162     0.09800
H40         H  0.82960702  0.21641878  0.06850462     0.07300
H41         H  0.93635939  0.14827362  0.15439356     0.07200
C42         C  0.82724520  0.19861363  0.39275129     0.04200
C43         C  0.84804777  0.15569067  0.40853661    -0.11900
C44         C  0.84417138  0.14281414  0.45770163     0.01700
C45         C  0.81071645  0.16739352  0.48553703    -0.10500
C46         C  0.79131814  0.20935035  0.46816628     0.04200
C47         C  0.80895625  0.22869966  0.42729091    -0.09900
H48         H  0.86710341  0.13351735  0.38371738     0.09800
H49         H  0.79954251  0.15393737  0.51968344     0.07300
H50         H  0.79598798  0.26352029  0.41820409     0.07200
C51         C  0.62197113  0.12878449  0.54079837     0.04200
C52         C  0.65480965  0.12002985  0.57839829    -0.11900
C53         C  0.68330082  0.15727835  0.59629397     0.01700
C54         C  0.67690041  0.20241955  0.57740747    -0.10500
C55         C  0.64612694  0.21189819  0.53930452     0.04200
C56         C  0.61645367  0.17490735  0.52364874    -0.09900
H57         H  0.65974247  0.08460003  0.59166990     0.09800
H58         H  0.70044118  0.22973312  0.58955569     0.07300
H59         H  0.59128691  0.18119268  0.49515263     0.07200
Zn60       Zn  0.80190804  0.20688377  0.23853261     1.49700
Zn61       Zn  0.77286541  0.30108841  0.29315775     1.49400
Zn62       Zn  0.81024872  0.30780115  0.18956079     1.49100
Zn63       Zn  0.70667911  0.26384993  0.20885957     1.49500
O64         O  0.77329854  0.27015037  0.23201253    -1.83000
O65         O  0.82156331  0.18651698  0.30675868    -0.73700
O66         O  0.82244853  0.35160339  0.30091797    -0.73500
O67         O  0.84395106  0.25652581  0.14759207    -0.73000
O68         O  0.79668640  0.25344698  0.33803587    -0.73700
O69         O  0.85833206  0.19678596  0.19666168    -0.73300
O70         O  0.85905402  0.34820921  0.23131987    -0.73900
O71         O  0.68919335  0.31871309  0.16473965    -0.73300
O72         O  0.70692849  0.32692994  0.30974703    -0.74000
O73         O  0.76064678  0.35001046  0.15110304    -0.73400
O74         O  0.66521705  0.27573078  0.26579042    -0.73900
O75         O  0.69071803  0.19788351  0.17650619    -0.73800
O76         O  0.75444391  0.16377449  0.20712605    -0.73600
C77         C  0.81583617  0.21305774  0.34286848     0.78200
C78         C  0.85732569  0.36284600  0.27474128     0.78700
C79         C  0.86156992  0.21539035  0.15594162     0.77700
C80         C  0.71494401  0.35024045  0.14533355     0.78000
C81         C  0.66722462  0.31038167  0.29508199     0.79200
C82         C  0.71604236  0.16099217  0.18258809     0.78200
C83         C  0.86501856  0.58216227  0.56530089     0.04200
C84         C  0.84779783  0.53628769  0.56856659    -0.11900
C85         C  0.80263079  0.52631859  0.58578621     0.01700
C86         C  0.77836966  0.56312555  0.60965627    -0.10500
C87         C  0.79539373  0.60999378  0.61005955     0.04200
C88         C  0.83927828  0.61975409  0.58669604    -0.09900
H89         H  0.86905152  0.50794989  0.55393075     0.09800
H90         H  0.74437356  0.55609183  0.62595565     0.07300
H91         H  0.85384063  0.65514374  0.58676203     0.07200
C92         C  0.70241094  0.60859034  0.39536328     0.04200
C93         C  0.73555567  0.58287398  0.42270460    -0.11900
C94         C  0.72158656  0.53932647  0.44158224     0.01700
C95         C  0.67860527  0.52025688  0.42803872    -0.10500
C96         C  0.64114098  0.55114374  0.41989015     0.04200
C97         C  0.65305625  0.59538230  0.39880919    -0.09900
H98         H  0.77135361  0.59603580  0.42856525     0.09800
H99         H  0.67193859  0.48396538  0.43824854     0.07300
H100        H  0.62544732  0.61820926  0.38513827     0.07200
Zn101      Zn  0.08079980  0.50768921  0.49663085     1.49700
Zn102      Zn  0.98756246  0.43571892  0.49868194     1.49400
Zn103      Zn  0.99243749  0.52429358  0.56933582     1.49100
Zn104      Zn  0.97472541  0.54252268  0.46401855     1.49500
O105        O  0.01012422  0.50200392  0.50678221    -1.83000
O106        O  0.10655869  0.44287709  0.46884528    -0.73700
O107        O  0.95629429  0.40878998  0.55880629    -0.73500
O108        O  0.04961729  0.54970608  0.60077797    -0.73000
O109        O  0.04281137  0.39560864  0.47187224    -0.73700
O110        O  0.11484579  0.54148492  0.55745021    -0.73300
O111        O  0.95957387  0.47167180  0.60610310    -0.73900
O112        O  0.91708525  0.57167823  0.49987540    -0.73300
O113        O  0.93714209  0.42999413  0.44786712    -0.74000
O114        O  0.94767883  0.57976490  0.57178051    -0.73400
O115        O  0.94974438  0.49889775  0.41246948    -0.73900
O116        O  0.02286261  0.58968761  0.43512264    -0.73800
O117        O  0.09342223  0.55475332  0.44442270    -0.73600
C118        C  0.08616822  0.40300539  0.45998525     0.78200
C119        C  0.94666733  0.42901066  0.59821342     0.78700
C120        C  0.09385050  0.55708440  0.59492766     0.77700
C121        C  0.91279666  0.58374899  0.54357973     0.78000
C122        C  0.93583799  0.45586210  0.41131469     0.79200
C123        C  0.06803877  0.58810264  0.42821189     0.78200
C124        C  0.39885637  0.79813558  0.16484176     0.04200
C125        C  0.41812344  0.80723420  0.20989595    -0.11900
C126        C  0.44960553  0.84469016  0.21901722     0.01700
C127        C  0.45869808  0.87583763  0.18131934    -0.10500
C128        C  0.44318650  0.86598889  0.13485571     0.04200
C129        C  0.41126722  0.82798110  0.12672422    -0.09900
H130        H  0.41026389  0.78274764  0.23790729     0.09800
H131        H  0.48156725  0.90604644  0.18694376     0.07300
H132        H  0.39778014  0.82080029  0.09127898     0.07200
C133        C  0.54836500  0.65787445  0.15208520     0.04200
C134        C  0.59962428  0.65592444  0.15509236    -0.11900
C135        C  0.62532677  0.68876205  0.18365394     0.01700
C136        C  0.60038938  0.72025641  0.21106977    -0.10500
C137        C  0.55218909  0.72604901  0.20589762     0.04200
C138        C  0.52518803  0.69425222  0.17753674    -0.09900
H139        H  0.61920108  0.62962366  0.13525968     0.09800
H140        H  0.61942011  0.74272911  0.23629829     0.07300
H141        H  0.48704524  0.69869843  0.17434443     0.07200
C142        C  0.08466712  0.07454763  0.40167518     0.04200
C143        C  0.08499315  0.10984785  0.36468155    -0.11900
C144        C  0.11857487  0.10590965  0.32640921     0.01700
C145        C  0.14502057  0.06450557  0.32460847    -0.10500
C146        C  0.15057491  0.03518504  0.36368713     0.04200
C147        C  0.12115994  0.04108316  0.40258704    -0.09900
H148        H  0.06060215  0.13929740  0.36610403     0.09800
H149        H  0.16428064  0.05592945  0.29253651     0.07300
H150        H  0.12358028  0.01625915  0.43161287     0.07200
C151        C  0.14003076  0.93497097  0.14879964     0.04200
C152        C  0.15518271  0.95807214  0.19023821    -0.11900
C153        C  0.18556417  0.93476000  0.22171248     0.01700
C154        C  0.20117571  0.88989067  0.21190246    -0.10500
C155        C  0.18159165  0.86445346  0.17452682     0.04200
C156        C  0.15219542  0.88707736  0.14142648    -0.09900
H157        H  0.14265035  0.99326798  0.19855198     0.09800
H158        H  0.22370567  0.87256174  0.23757430     0.07300
H159        H  0.13755302  0.86750886  0.11168734     0.07200
Zn160      Zn  0.23565759  0.66213127  0.23649090     1.49700
Zn161      Zn  0.22358451  0.76519645  0.26123387     1.49400
Zn162      Zn  0.32776371  0.73127376  0.25227839     1.49100
Zn163      Zn  0.26132892  0.73864984  0.15890218     1.49500
O164        O  0.26255259  0.72437949  0.22721838    -1.83000
O165        O  0.19453616  0.65485470  0.29545857    -0.73700
O166        O  0.26601024  0.81685065  0.28819254    -0.73500
O167        O  0.33695584  0.67703958  0.29940034    -0.73000
O168        O  0.19041401  0.73021624  0.31517763    -0.73700
O169        O  0.29427550  0.62628596  0.25572510    -0.73300
O170        O  0.34144379  0.79629899  0.28555288    -0.73900
O171        O  0.32638587  0.76302876  0.13709421    -0.73300
O172        O  0.17726091  0.79309011  0.21441615    -0.74000
O173        O  0.36691524  0.72583086  0.19277118    -0.73400
O174        O  0.22312862  0.79733924  0.15051786    -0.73900
O175        O  0.22654748  0.68740571  0.12203127    -0.73800
O176        O  0.19073234  0.64570704  0.17847811    -0.73600
C177        C  0.18129806  0.68688149  0.32402718     0.78200
C178        C  0.30981897  0.82632040  0.29667844     0.78700
C179        C  0.31903037  0.63605048  0.29308714     0.77700
C180        C  0.36406068  0.75860780  0.16193680     0.78000
C181        C  0.19085933  0.81412393  0.17687551     0.79200
C182        C  0.19179395  0.66160527  0.13593812     0.78200
Zn183      Zn  0.22168224  0.24378468  0.15960704     1.49700
Zn184      Zn  0.14272595  0.24123861  0.24467089     1.49400
Zn185      Zn  0.23091991  0.16464698  0.23890282     1.49100
Zn186      Zn  0.25199611  0.27317000  0.26427296     1.49500
O187        O  0.21124340  0.23115666  0.22689622    -1.83000
O188        O  0.15786458  0.25456825  0.12520381    -0.73700
O189        O  0.11697814  0.18379603  0.28625905    -0.73500
O190        O  0.27009060  0.13356419  0.18327539    -0.73000
O191        O  0.10397417  0.25747775  0.18341690    -0.73700
O192        O  0.26645751  0.19380061  0.13322780    -0.73300
O193        O  0.17447104  0.13276130  0.26925837    -0.73900
O194        O  0.30497735  0.23183098  0.29214966    -0.73300
O195        O  0.13603551  0.29818246  0.28936157    -0.74000
O196        O  0.28243721  0.15689015  0.28936700    -0.73400
O197        O  0.21065910  0.30331928  0.31609259    -0.73900
O198        O  0.28197390  0.32610689  0.22334383    -0.73800
O199        O  0.25807749  0.30578998  0.15077626    -0.73600
C200        C  0.11542241  0.26229051  0.13959693     0.78200
C201        C  0.13583905  0.14298213  0.29126716     0.78700
C202        C  0.28596864  0.15538263  0.14693171     0.77700
C203        C  0.31323406  0.18801164  0.29976976     0.78000
C204        C  0.16607832  0.31175910  0.32064499     0.79200
C205        C  0.27979988  0.33420672  0.17871722     0.78200
C206        C  0.56862859  0.85803209  0.54616405     0.04200
C207        C  0.59203062  0.84693965  0.58988482    -0.11900
C208        C  0.59204337  0.79897418  0.60620666     0.01700
C209        C  0.56126310  0.76656531  0.58361099    -0.10500
C210        C  0.54006377  0.77885164  0.54038940     0.04200
C211        C  0.55251118  0.82034509  0.51856873    -0.09900
H212        H  0.61016932  0.87426339  0.61006069     0.09800
H213        H  0.55458457  0.73218710  0.59888230     0.07300
H214        H  0.53810724  0.82588895  0.48318888     0.07200
C215        C  0.37679823  0.68622950  0.60968583     0.04200
C216        C  0.37542326  0.71108459  0.56679840    -0.11900
C217        C  0.39086939  0.69105043  0.52372451     0.01700
C218        C  0.39908570  0.64289269  0.52293206    -0.10500
C219        C  0.41160189  0.61859139  0.56446411     0.04200
C220        C  0.39758977  0.63948837  0.60899844    -0.09900
H221        H  0.36378530  0.74730401  0.56753792     0.09800
H222        H  0.40417681  0.62637688  0.48861032     0.07300
H223        H  0.40318266  0.62056760  0.64183880     0.07200
Zn224      Zn  0.44080184  0.03313893  0.46063869     1.49700
Zn225      Zn  0.52843640  0.00771272  0.52941911     1.49400
Zn226      Zn  0.51253889  0.94764503  0.43398342     1.49100
Zn227      Zn  0.54708334  0.05275773  0.42368774     1.49500
O228        O  0.50733635  0.01116210  0.46158268    -1.83000
O229        O  0.42041504  0.06539574  0.52638391    -0.73700
O230        O  0.55587499  0.94328976  0.55223208    -0.73500
O231        O  0.45220678  0.92382920  0.40106198    -0.73000
O232        O  0.47467216  0.03082573  0.57178305    -0.73700
O233        O  0.40314559  0.97814098  0.43057571    -0.73300
O234        O  0.53563531  0.90619663  0.48601259    -0.73900
O235        O  0.59707246  0.00982894  0.38652334    -0.73300
O236        O  0.57897841  0.05655604  0.54231853    -0.74000
O237        O  0.56534226  0.93820115  0.38839795    -0.73400
O238        O  0.58318241  0.09416779  0.47298479    -0.73900
O239        O  0.50207000  0.09629768  0.38087806    -0.73800
O240        O  0.43046067  0.08418759  0.41175593    -0.73600
C241        C  0.44055114  0.06037642  0.56704577     0.78200
C242        C  0.55379173  0.90548777  0.52770176     0.78700
C243        C  0.41059458  0.94060053  0.40563591     0.77700
C244        C  0.59887370  0.96541196  0.37637480     0.78000
C245        C  0.59381928  0.09073899  0.51732260     0.79200
C246        C  0.45702237  0.10513108  0.38205674     0.78200
C247        C  0.29486293  0.36245421  0.61807096     0.04200
C248        C  0.25842342  0.35752343  0.58543467    -0.11900
C249        C  0.26909448  0.33291535  0.54412014     0.01700
C250        C  0.31288885  0.34683094  0.52273465    -0.10500
C251        C  0.34771444  0.37073764  0.55074556     0.04200
C252        C  0.34036239  0.37218863  0.60045995    -0.09900
H253        H  0.22219234  0.36166228  0.59826895     0.09800
H254        H  0.31952146  0.34037782  0.48552542     0.07300
H255        H  0.36936223  0.37994937  0.62480378     0.07200
C256        C  0.11306885  0.36287821  0.43728618     0.04200
C257        C  0.12336743  0.32326589  0.46548375    -0.11900
C258        C  0.14609008  0.28280058  0.44630552     0.01700
C259        C  0.15491124  0.28143471  0.39807584    -0.10500
C260        C  0.14848514  0.32050751  0.36935627     0.04200
C261        C  0.12631495  0.36158712  0.38828196    -0.09900
H262        H  0.11492185  0.32510395  0.50291006     0.09800
H263        H  0.16983039  0.24968127  0.38271876     0.07300
H264        H  0.11876606  0.39126658  0.36545858     0.07200
C265        C  0.62174185  0.33476558  0.30461093     0.04200
C266        C  0.59209735  0.33882282  0.26490359    -0.11900
C267        C  0.54335948  0.34469628  0.26981792     0.01700
C268        C  0.52651711  0.35999482  0.31446907    -0.10500
C269        C  0.55670771  0.36403951  0.35414743     0.04200
C270        C  0.60489564  0.34952589  0.34956194    -0.09900
H271        H  0.60651236  0.33133953  0.23022112     0.09800
H272        H  0.48922892  0.36735392  0.31933526     0.07300
H273        H  0.62830888  0.34881379  0.38025644     0.07200
C274        C  0.36370541  0.17420412  0.30806862     0.04200
C275        C  0.39440276  0.19612645  0.27699549    -0.11900
C276        C  0.44196482  0.20114616  0.28806102     0.01700
C277        C  0.46288694  0.17145526  0.32220202    -0.10500
C278        C  0.43417485  0.13976224  0.34824115     0.04200
C279        C  0.38330467  0.14357493  0.34297250    -0.09900
H280        H  0.38004651  0.21635788  0.24750094     0.09800
H281        H  0.50073480  0.17400027  0.32931466     0.07300
H282        H  0.35980630  0.12368598  0.36570402     0.07200
C283        C  0.57107464  0.58057614  0.89085638     0.04200
C284        C  0.57350627  0.53619974  0.87026120    -0.11900
C285        C  0.58260350  0.53114423  0.82269664     0.01700
C286        C  0.59637271  0.56950264  0.79547854    -0.10500
C287        C  0.60073006  0.61428219  0.81597537     0.04200
C288        C  0.58549734  0.62083418  0.86408874    -0.09900
H289        H  0.56354225  0.50505860  0.89041867     0.09800
H290        H  0.60583625  0.56391319  0.75854716     0.07300
H291        H  0.58571657  0.65554983  0.88022945     0.07200
C292        C  0.61868436  0.31518647  0.67229173     0.04200
C293        C  0.59150747  0.32585517  0.71255470    -0.11900
C294        C  0.56489681  0.36672072  0.71397019     0.01700
C295        C  0.55188834  0.38909600  0.67232589    -0.10500
C296        C  0.57195366  0.37696792  0.62880903     0.04200
C297        C  0.60740367  0.34010179  0.62897462    -0.09900
H298        H  0.59955383  0.30987285  0.74655508     0.09800
H299        H  0.53030706  0.42059674  0.67529858     0.07300
H300        H  0.62554462  0.33124755  0.59706392     0.07200
Zn301      Zn  0.49048703  0.53503501  0.46302211     1.49700
Zn302      Zn  0.55438877  0.44321361  0.48601699     1.49400
Zn303      Zn  0.46718217  0.46921815  0.55394762     1.49100
Zn304      Zn  0.44911156  0.43015076  0.44733113     1.49500
O305        O  0.48975204  0.46959473  0.48794749    -1.83000
O306        O  0.55529824  0.55649419  0.43448397    -0.73700
O307        O  0.57534678  0.40643601  0.54695222    -0.73500
O308        O  0.43994828  0.53632017  0.57728613    -0.73000
O309        O  0.59589176  0.49629960  0.46410936    -0.73700
O310        O  0.46584030  0.57747099  0.51544958    -0.73300
O311        O  0.51701746  0.43181339  0.59341732    -0.73900
O312        O  0.40203620  0.38975247  0.48693492    -0.73300
O313        O  0.56506236  0.39949278  0.43077696    -0.74000
O314        O  0.41068827  0.42581947  0.55679633    -0.73400
O315        O  0.49200776  0.39337255  0.40125101    -0.73900
O316        O  0.40782093  0.47281544  0.40672656    -0.73800
O317        O  0.44007193  0.54415948  0.41149710    -0.73600
C318        C  0.59447192  0.53464789  0.44012647     0.78200
C319        C  0.55455318  0.40648144  0.58718883     0.78700
C320        C  0.44197166  0.57521057  0.55411261     0.77700
C321        C  0.38944493  0.39587657  0.53019533     0.78000
C322        C  0.53682236  0.38554566  0.39832744     0.79200
C323        C  0.40839014  0.51626244  0.39503786     0.78200
C324        C  0.33493396  0.14588673  0.12695989     0.04200
C325        C  0.35566961  0.10238825  0.11002072    -0.11900
C326        C  0.40360833  0.10351821  0.09130679     0.01700
C327        C  0.42647334  0.14811001  0.08997310    -0.10500
C328        C  0.39787435  0.18783178  0.08755579     0.04200
C329        C  0.36237124  0.18730099  0.12176214    -0.09900
H330        H  0.33559161  0.06977067  0.11085373     0.09800
H331        H  0.46195648  0.15187281  0.07573404     0.07300
H332        H  0.34849823  0.22096621  0.13352029     0.07200
C333        C  0.18493034  0.10624381  0.95594120     0.04200
C334        C  0.18737248  0.12255041  0.90840358    -0.11900
C335        C  0.23094853  0.14009026  0.89047654     0.01700
C336        C  0.27030492  0.14199958  0.91996702    -0.10500
C337        C  0.26691305  0.13232341  0.96781987     0.04200
C338        C  0.22483212  0.11283344  0.98607626    -0.09900
H339        H  0.15621102  0.12099140  0.88562498     0.09800
H340        H  0.30286788  0.15830137  0.90731676     0.07300
H341        H  0.22275257  0.10414338  0.02346312     0.07200
C342        C  0.16253616  0.38653665  0.83561909     0.04200
C343        C  0.17190444  0.43065316  0.81519058    -0.11900
C344        C  0.15961738  0.47173998  0.83891709     0.01700
C345        C  0.14448545  0.46980423  0.88539970    -0.10500
C346        C  0.12371151  0.42827257  0.90101059     0.04200
C347        C  0.13371239  0.38519929  0.87694840    -0.09900
H348        H  0.18579836  0.43314425  0.77941820     0.09800
H349        H  0.13499174  0.50286175  0.90260123     0.07300
H350        H  0.11942088  0.35214766  0.88979556     0.07200
C351        C  0.11692509  0.58385228  0.63547986     0.04200
C352        C  0.09806239  0.57284560  0.68004598    -0.11900
C353        C  0.09801094  0.60570304  0.71746280     0.01700
C354        C  0.11374148  0.65097911  0.70848000    -0.10500
C355        C  0.14705666  0.65726521  0.67259215     0.04200
C356        C  0.14697293  0.62467542  0.63326127    -0.09900
H357        H  0.08316090  0.53797273  0.68517404     0.09800
H358        H  0.11070671  0.67708635  0.73656132     0.07300
H359        H  0.16811252  0.63167569  0.60205050     0.07200
Zn360      Zn  0.27811138  0.32063162  0.76338670     1.49700
Zn361      Zn  0.25872043  0.23091302  0.68754667     1.49400
Zn362      Zn  0.31163857  0.21841596  0.78496043     1.49100
Zn363      Zn  0.20004808  0.24331652  0.78601716     1.49500
O364        O  0.26214170  0.25292165  0.75512890    -1.83000
O365        O  0.29546229  0.35033880  0.70152581    -0.73700
O366        O  0.31129464  0.18506383  0.66407484    -0.73500
O367        O  0.35302074  0.26484574  0.82768654    -0.73000
O368        O  0.27351457  0.29110781  0.65326172    -0.73700
O369        O  0.32844614  0.33720063  0.81219145    -0.73300
O370        O  0.35134893  0.18429676  0.73205399    -0.73900
O371        O  0.20186253  0.19426249  0.83472286    -0.73300
O372        O  0.19165107  0.20399973  0.66880996    -0.74000
O373        O  0.27748482  0.17189740  0.82829908    -0.73400
O374        O  0.15631143  0.21710822  0.73805753    -0.73900
O375        O  0.17136591  0.30305609  0.81772140    -0.73800
O376        O  0.22340097  0.35448423  0.78967949    -0.73600
C377        C  0.28841917  0.33334463  0.66027824     0.78200
C378        C  0.34809319  0.17316169  0.68761641     0.78700
C379        C  0.35534969  0.30971926  0.83516751     0.77700
C380        C  0.23607748  0.16818744  0.84706222     0.78000
C381        C  0.15466381  0.20318434  0.69503369     0.79200
C382        C  0.18598813  0.34537818  0.81304431     0.78200
Zn383      Zn  0.44872568  0.96766210  0.02020448     1.49700
Zn384      Zn  0.53400440  0.04292078  0.03258349     1.49400
Zn385      Zn  0.55840135  0.93935508  0.05759229     1.49100
Zn386      Zn  0.54305231  0.96916927  0.94920561     1.49500
O387        O  0.52043400  0.97865752  0.01538266    -1.83000
O388        O  0.41282278  0.02453921  0.05459362    -0.73700
O389        O  0.58444086  0.05436770  0.08301844    -0.73500
O390        O  0.50876735  0.90456930  0.09840966    -0.73000
O391        O  0.47491198  0.07245219  0.05890741    -0.73700
O392        O  0.43702922  0.91189577  0.06412953    -0.73300
O393        O  0.60559386  0.98145278  0.10053758    -0.73900
O394        O  0.58065955  0.91110956  0.94123424    -0.73300
O395        O  0.56258769  0.07426942  0.97597364    -0.74000
O396        O  0.59511771  0.88975674  0.01570990    -0.73400
O397        O  0.58225993  0.02342902  0.91972766    -0.73900
O398        O  0.48661948  0.95777588  0.90938560    -0.73800
O399        O  0.42019054  0.95354316  0.95215933    -0.73600
C400        C  0.43118586  0.06395499  0.06770779     0.78200
C401        C  0.61075980  0.02636531  0.10620726     0.78700
C402        C  0.46405137  0.89492624  0.09633363     0.77700
C403        C  0.59949972  0.88309734  0.97064702     0.78000
C404        C  0.58309997  0.06507865  0.93653590     0.79200
C405        C  0.44188303  0.95184023  0.91219590     0.78200
C406        C  0.89726012  0.39116020  0.29700152     0.04200
C407        C  0.93957404  0.39934279  0.27184148    -0.11900
C408        C  0.97966628  0.42247912  0.29325831     0.01700
C409        C  0.97636916  0.43511693  0.34055483    -0.10500
C410        C  0.93364118  0.43280703  0.36466969     0.04200
C411        C  0.89445344  0.40868407  0.34431648    -0.09900
H412        H  0.94007252  0.38808572  0.23519302     0.09800
H413        H  0.00694452  0.44975278  0.35872632     0.07300
H414        H  0.86249815  0.40349073  0.36487839     0.07200
C415        C  0.88318913  0.59869935  0.19484625     0.04200
C416        C  0.92231569  0.57608319  0.21682067    -0.11900
C417        C  0.95311323  0.54737953  0.18956865     0.01700
C418        C  0.94723656  0.54616889  0.14107444    -0.10500
C419        C  0.90394456  0.55802462  0.12084286     0.04200
C420        C  0.87196781  0.58649013  0.14680909    -0.09900
H421        H  0.92742978  0.57948878  0.25483618     0.09800
H422        H  0.97403121  0.52866536  0.11963097     0.07300
H423        H  0.83974030  0.59930611  0.13006417     0.07200
C424        C  0.64939432  0.04681864  0.13806748     0.04200
C425        C  0.67656015  0.01633056  0.16698551    -0.11900
C426        C  0.71839555  0.03316570  0.18866811     0.01700
C427        C  0.73533603  0.07726383  0.17711908    -0.10500
C428        C  0.70309267  0.11224447  0.16404670     0.04200
C429        C  0.66017220  0.09669831  0.14108392    -0.09900
H430        H  0.66494482  0.98044784  0.17332305     0.09800
H431        H  0.77033192  0.08642321  0.19084371     0.07300
H432        H  0.63609211  0.12236310  0.12598806     0.07200
C433        C  0.64227720  0.94329710  0.35448824     0.04200
C434        C  0.68455050  0.96967784  0.35258080    -0.11900
C435        C  0.72812585  0.94925601  0.33771178     0.01700
C436        C  0.72904612  0.90087032  0.33014505    -0.10500
C437        C  0.68747276  0.87479394  0.32526698     0.04200
C438        C  0.64357889  0.89517660  0.33897471    -0.09900
H439        H  0.68263414  0.00665371  0.36160619     0.09800
H440        H  0.76247691  0.88362592  0.32291143     0.07300
H441        H  0.61140898  0.87406349  0.33792867     0.07200
C442        C  0.09330678  0.63080766  0.41169922     0.04200
C443        C  0.12702025  0.63306648  0.37429073    -0.11900
C444        C  0.15423930  0.67506552  0.36800969     0.01700
C445        C  0.15185048  0.71021577  0.40300075    -0.10500
C446        C  0.11486138  0.71056286  0.43581837     0.04200
C447        C  0.08631427  0.67035564  0.44000506    -0.09900
H448        H  0.13077140  0.60368688  0.34992547     0.09800
H449        H  0.17563986  0.74020106  0.40130519     0.07300
H450        H  0.05763084  0.66957927  0.46557768     0.07200
C451        C  0.91210416  0.87580665  0.44682044     0.04200
C452        C  0.94724453  0.84607599  0.46432831    -0.11900
C453        C  0.95410478  0.80181654  0.44624223     0.01700
C454        C  0.92214495  0.78262354  0.41360075    -0.10500
C455        C  0.88273533  0.80878117  0.39818089     0.04200
C456        C  0.87825114  0.85701205  0.41362181    -0.09900
H457        H  0.97467902  0.85961148  0.48826440     0.09800
H458        H  0.92916849  0.74797616  0.39880539     0.07300
H459        H  0.84994814  0.87897300  0.39990576     0.07200
C460        C  0.92425260  0.86841919  0.08413847     0.04200
C461        C  0.90541612  0.85945459  0.13125448    -0.11900
C462        C  0.87179306  0.82134401  0.13848612     0.01700
C463        C  0.85772215  0.79497857  0.09936286    -0.10500
C464        C  0.87286551  0.80558529  0.05402195     0.04200
C465        C  0.90995870  0.83754068  0.04737708    -0.09900
H466        H  0.91522920  0.88220448  0.16069396     0.09800
H467        H  0.82957149  0.76898551  0.10354775     0.07300
H468        H  0.92116127  0.84368808  0.01114080     0.07200
C469        C  0.66481037  0.80079218  0.88400405     0.04200
C470        C  0.63165591  0.83419692  0.90132606    -0.11900
C471        C  0.62839056  0.84336035  0.95127386     0.01700
C472        C  0.65924242  0.81941458  0.98208784    -0.10500
C473        C  0.69404948  0.78939898  0.96362237     0.04200
C474        C  0.69223832  0.77580157  0.91653285    -0.09900
H475        H  0.61067796  0.85436091  0.87630627     0.09800
H476        H  0.66195723  0.83016602  0.01902449     0.07300
H477        H  0.71898679  0.75125721  0.90400414     0.07200
Zn478      Zn  0.84584647  0.73494035  0.26502326     1.49700
Zn479      Zn  0.75174241  0.74568834  0.33567267     1.49400
Zn480      Zn  0.74774634  0.77189270  0.22532183     1.49100
Zn481      Zn  0.75570558  0.66251054  0.25796964     1.49500
O482        O  0.77564715  0.72854683  0.27086607    -1.83000
O483        O  0.87026999  0.76422387  0.32729036    -0.73700
O484        O  0.69715267  0.79260042  0.33386871    -0.73500
O485        O  0.80045295  0.80316228  0.18215673    -0.73000
O486        O  0.80610497  0.78175465  0.37056932    -0.73700
O487        O  0.86939245  0.78283027  0.21447194    -0.73300
O488        O  0.71489394  0.82436960  0.26414444    -0.73900
O489        O  0.69739740  0.66030363  0.21589055    -0.73300
O490        O  0.72660251  0.68750553  0.37337291    -0.74000
O491        O  0.69561666  0.73427141  0.18899629    -0.73400
O492        O  0.73288262  0.63010692  0.31952052    -0.73900
O493        O  0.80879932  0.62673145  0.22426273    -0.73800
O494        O  0.87347315  0.66987290  0.24123785    -0.73600
C495        C  0.85090279  0.78468831  0.36303916     0.78200
C496        C  0.69582284  0.82714864  0.30538055     0.78700
C497        C  0.84629982  0.80516667  0.18275973     0.77700
C498        C  0.67721715  0.69278309  0.19237851     0.78000
C499        C  0.72088460  0.64434129  0.36099294     0.79200
C500        C  0.85369655  0.63335528  0.22204559     0.78200
C501        C  0.32255657  0.59858002  0.32971980     0.04200
C502        C  0.36551887  0.58272451  0.35050415    -0.11900
C503        C  0.36914663  0.53462760  0.36459695     0.01700
C504        C  0.33395036  0.50299394  0.34759915    -0.10500
C505        C  0.29256158  0.52072136  0.32648374     0.04200
C506        C  0.28322767  0.56852144  0.33166265    -0.09900
H507        H  0.39590378  0.60596107  0.35247421     0.09800
H508        H  0.34015301  0.46532333  0.34736130     0.07300
H509        H  0.24959337  0.58119006  0.31757385     0.07200
C510        C  0.29065148  0.38247402  0.16099628     0.04200
C511        C  0.33491746  0.39948095  0.14290973    -0.11900
C512        C  0.33813624  0.44685786  0.12566993     0.01700
C513        C  0.29617972  0.47318863  0.12405207    -0.10500
C514        C  0.25780598  0.46145745  0.15362919     0.04200
C515        C  0.25300451  0.41399057  0.16609243    -0.09900
H516        H  0.36571810  0.37668612  0.14235179     0.09800
H517        H  0.29669622  0.50708881  0.10680155     0.07300
H518        H  0.22169518  0.40200578  0.18470378     0.07200
Zn519      Zn  0.44901315  0.53665321  0.96909682     1.49700
Zn520      Zn  0.42985775  0.57017919  0.07610465     1.49400
Zn521      Zn  0.47289380  0.46254097  0.05215908     1.49100
Zn522      Zn  0.53713194  0.55535272  0.03962537     1.49500
O523        O  0.47162555  0.53159691  0.03555755    -1.83000
O524        O  0.39859818  0.58260464  0.96045702    -0.73700
O525        O  0.38504507  0.51638482  0.10573311    -0.73500
O526        O  0.45567995  0.42648598  0.99135662    -0.73000
O527        O  0.38482900  0.61357522  0.03149006    -0.73700
O528        O  0.42598424  0.47496176  0.93715551    -0.73300
O529        O  0.41695640  0.44519021  0.09344341    -0.73900
O530        O  0.57771979  0.50378644  0.06642205    -0.73300
O531        O  0.47650019  0.61412565  0.12246094    -0.74000
O532        O  0.53857301  0.43761062  0.08078552    -0.73400
O533        O  0.54628985  0.60591030  0.08663718    -0.73900
O534        O  0.56410530  0.57858557  0.97564227    -0.73800
O535        O  0.50088311  0.56417923  0.93015803    -0.73600
C536        C  0.37704319  0.61204976  0.98624683     0.78200
C537        C  0.38293454  0.47070089  0.10829686     0.78700
C538        C  0.43572300  0.43344193  0.95087387     0.77700
C539        C  0.57755054  0.46112864  0.08084372     0.78000
C540        C  0.52148637  0.62448200  0.11904539     0.79200
C541        C  0.54349014  0.57880178  0.93515569     0.78200
Zn542      Zn  0.94733820  0.02777238  0.46611485     1.49700
Zn543      Zn  0.03147716  0.04191537  0.54564771     1.49400
Zn544      Zn  0.92092432  0.06614454  0.57528285     1.49100
Zn545      Zn  0.95668488  0.96178985  0.56304961     1.49500
O546        O  0.96354839  0.02553131  0.53706449    -1.83000
O547        O  0.00549169  0.05262610  0.42663987    -0.73700
O548        O  0.03872312  0.09503635  0.59072570    -0.73500
O549        O  0.87978188  0.10465391  0.52585910    -0.73000
O550        O  0.06101504  0.06369918  0.48225803    -0.73700
O551        O  0.89709135  0.07717669  0.45358163    -0.73300
O552        O  0.96556109  0.11359009  0.61431883    -0.73900
O553        O  0.90671032  0.95192400  0.61107162    -0.73300
O554        O  0.07070231  0.98791092  0.57533811    -0.74000
O555        O  0.87607636  0.02319788  0.62036671    -0.73400
O556        O  0.01872783  0.93056723  0.58790690    -0.73900
O557        O  0.92989596  0.92520348  0.51026294    -0.73800
O558        O  0.92159313  0.96158042  0.44118327    -0.73600
C559        C  0.04741001  0.06613662  0.43881243     0.78200
C560        C  0.01102768  0.12021727  0.61553247     0.78700
C561        C  0.87457549  0.10565190  0.48030599     0.77700
C562        C  0.87582446  0.97856444  0.62943814     0.78000
C563        C  0.06130651  0.94631356  0.58996488     0.79200
C564        C  0.91782643  0.92442580  0.46665716     0.78200
C565        C  0.36824825  0.91690013  0.38361991     0.04200
C566        C  0.32642062  0.92540542  0.40776619    -0.11900
C567        C  0.28308443  0.91257754  0.38873466     0.01700
C568        C  0.28024074  0.89197961  0.34429257    -0.10500
C569        C  0.32061115  0.87048913  0.32515798     0.04200
C570        C  0.36618166  0.88621014  0.34278667    -0.09900
H571        H  0.32775748  0.93983248  0.44353070     0.09800
H572        H  0.24488739  0.88296450  0.33157814     0.07300
H573        H  0.39841448  0.87514625  0.32561315     0.07200
C574        C  0.17752077  0.87926095  0.62600823     0.04200
C575        C  0.13227624  0.90221869  0.63366927    -0.11900
C576        C  0.10180218  0.91246756  0.59369016     0.01700
C577        C  0.11543429  0.89697231  0.54910911    -0.10500
C578        C  0.16119292  0.88152671  0.54198068     0.04200
C579        C  0.19176085  0.87216036  0.57950761    -0.09900
H580        H  0.12144480  0.91195855  0.66920997     0.09800
H581        H  0.09370419  0.90504707  0.51810981     0.07300
H582        H  0.22726730  0.85941056  0.57183242     0.07200
C583        C  0.43165590  0.39195620  0.91817879     0.04200
C584        C  0.47234243  0.36466545  0.91841558    -0.11900
C585        C  0.47198893  0.31985079  0.89973492     0.01700
C586        C  0.43231591  0.30192321  0.87613803    -0.10500
C587        C  0.39245100  0.32998717  0.86838553     0.04200
C588        C  0.39140450  0.37595153  0.89068757    -0.09900
H589        H  0.50450647  0.37723816  0.93608136     0.09800
H590        H  0.43386263  0.26644593  0.86177251     0.07300
H591        H  0.35997321  0.39771618  0.88791373     0.07200
C592        C  0.60878202  0.10529337  0.91349180     0.04200
C593        C  0.59659990  0.14914206  0.93210329    -0.11900
C594        C  0.62118589  0.18936735  0.92047257     0.01700
C595        C  0.66308285  0.18576684  0.89570629    -0.10500
C596        C  0.67000352  0.14630212  0.86603882     0.04200
C597        C  0.64312531  0.10433707  0.87588498    -0.09900
H598        H  0.56485449  0.15303204  0.95314197     0.09800
H599        H  0.68253124  0.21837647  0.89024103     0.07300
H600        H  0.64770075  0.07300721  0.85436585     0.07200
C601        C  0.10587637  0.19838914  0.67551680     0.04200
C602        C  0.07816652  0.23685966  0.68661152    -0.11900
C603        C  0.02958230  0.23685417  0.68023748     0.01700
C604        C  0.00648355  0.19797847  0.65934066    -0.10500
C605        C  0.03367086  0.15883726  0.64431352     0.04200
C606        C  0.08403224  0.15882668  0.65364042    -0.09900
H607        H  0.09474405  0.26781015  0.70283651     0.09800
H608        H  0.96840819  0.19903204  0.65331886     0.07300
H609        H  0.10557016  0.12860659  0.64437806     0.07200
C610        C  0.92308181  0.40236148  0.63745014     0.04200
C611        C  0.93264807  0.41755243  0.68432317    -0.11900
C612        C  0.93416563  0.38339617  0.72004655     0.01700
C613        C  0.90018932  0.34746403  0.71619671    -0.10500
C614        C  0.88503258  0.33193266  0.67124158     0.04200
C615        C  0.89827860  0.35876467  0.63086274    -0.09900
H616        H  0.95325667  0.44944268  0.69009007     0.09800
H617        H  0.89379774  0.32532713  0.74668038     0.07300
H618        H  0.89075597  0.34550745  0.59552635     0.07200
C619        C  0.62611532  0.43892894  0.08579495     0.04200
C620        C  0.64380594  0.40400628  0.11820817    -0.11900
C621        C  0.69195154  0.38652610  0.11337962     0.01700
C622        C  0.71843548  0.40106473  0.07371596    -0.10500
C623        C  0.69933161  0.43304435  0.04131576     0.04200
C624        C  0.65618063  0.45393301  0.04985450    -0.09900
H625        H  0.62133370  0.39135313  0.14657328     0.09800
H626        H  0.75218164  0.38451774  0.06568520     0.07300
H627        H  0.64291588  0.47783986  0.02278682     0.07200
C628        C  0.84948636  0.39550184  0.90041875     0.04200
C629        C  0.81065882  0.42544340  0.90383089    -0.11900
C630        C  0.77016579  0.41936863  0.87523973     0.01700
C631        C  0.77059697  0.38472569  0.84008338    -0.10500
C632        C  0.80751070  0.35163232  0.83800955     0.04200
C633        C  0.84819686  0.35800073  0.86725187    -0.09900
H634        H  0.81153493  0.45276387  0.93080289     0.09800
H635        H  0.73940819  0.38050908  0.81783083     0.07300
H636        H  0.87729128  0.33317176  0.86563676     0.07200
Zn637      Zn  0.72416736  0.24539457  0.76376512     1.49700
Zn638      Zn  0.83410920  0.22672990  0.75171739     1.49400
Zn639      Zn  0.75613521  0.14399477  0.73431471     1.49100
Zn640      Zn  0.75976615  0.24082436  0.66474252     1.49500
O641        O  0.76927616  0.21310792  0.72838593    -1.83000
O642        O  0.75651479  0.29918340  0.79650080    -0.73700
O643        O  0.86156293  0.17012300  0.78953815    -0.73500
O644        O  0.71207229  0.12697106  0.79200435    -0.73000
O645        O  0.83342178  0.28180628  0.79781226    -0.73700
O646        O  0.70146986  0.20129186  0.81223501    -0.73300
O647        O  0.81961894  0.11150131  0.75654086    -0.73900
O648        O  0.75852126  0.18063846  0.62657274    -0.73300
O649        O  0.87243676  0.25313025  0.69656101    -0.74000
O650        O  0.71842593  0.12918181  0.67038271    -0.73400
O651        O  0.81504768  0.28699195  0.65392700    -0.73900
O652        O  0.69656987  0.28031008  0.65326511    -0.73800
O653        O  0.66834370  0.27030632  0.72497886    -0.73600
C654        C  0.79914780  0.30867017  0.80911152     0.78200
C655        C  0.85015841  0.12648212  0.78777373     0.78700
C656        C  0.69646600  0.15758776  0.82122281     0.77700
C657        C  0.72296787  0.15287183  0.63180047     0.78000
C658        C  0.85730954  0.28714796  0.67073568     0.79200
C659        C  0.66291217  0.28595845  0.68277355     0.78200
C660        C  0.10418203  0.87058244  0.90977576     0.04200
C661        C  0.06915201  0.83710666  0.89927654    -0.11900
C662        C  0.08149027  0.79323243  0.88184841     0.01700
C663        C  0.12858010  0.78104638  0.87590531    -0.10500
C664        C  0.16341614  0.81593022  0.87697127     0.04200
C665        C  0.15202504  0.86095969  0.89625364    -0.09900
H666        H  0.03178794  0.84463137  0.90484838     0.09800
H667        H  0.13668644  0.74648291  0.86123396     0.07300
H668        H  0.17884803  0.88837124  0.89834083     0.07200
C669        C  0.86172407  0.64877000  0.80887029     0.04200
C670        C  0.90180229  0.67559439  0.79806387    -0.11900
C671        C  0.94661608  0.66090006  0.81179277     0.01700
C672        C  0.95409497  0.61605049  0.82944549    -0.10500
C673        C  0.91580213  0.58977093  0.84564309     0.04200
C674        C  0.86850916  0.60579588  0.83488991    -0.09900
H675        H  0.89815149  0.71062510  0.78316319     0.09800
H676        H  0.98987897  0.60684625  0.84089473     0.07300
H677        H  0.83818761  0.58664683  0.84816703     0.07200
C678        C  0.91133213  0.05954085  0.89448458     0.04200
C679        C  0.87070897  0.03509570  0.90910367    -0.11900
C680        C  0.83025553  0.03339048  0.88109869     0.01700
C681        C  0.82531074  0.06600174  0.84415131    -0.10500
C682        C  0.86312275  0.09404102  0.82867167     0.04200
C683        C  0.90765568  0.09029757  0.85398265    -0.09900
H684        H  0.87237463  0.01160094  0.93937614     0.09800
H685        H  0.79192154  0.06771161  0.82500635     0.07300
H686        H  0.93862287  0.10940740  0.84183069     0.07200
C687        C  0.79343361  0.88519003  0.68640255     0.04200
C688        C  0.82632166  0.90677117  0.65495357    -0.11900
C689        C  0.83951347  0.95548368  0.66114645     0.01700
C690        C  0.82289059  0.97913643  0.70194598    -0.10500
C691        C  0.79076996  0.95656654  0.73278802     0.04200
C692        C  0.77183858  0.91308044  0.72076430    -0.09900
H693        H  0.84260110  0.88572582  0.62731887     0.09800
H694        H  0.83815955  0.01289774  0.71202839     0.07300
H695        H  0.74668258  0.89708829  0.74514223     0.07200
Zn696      Zn  0.72512271  0.66093210  0.73726983     1.49700
Zn697      Zn  0.75790674  0.75925357  0.76760478     1.49400
Zn698      Zn  0.73031388  0.74644935  0.66027895     1.49100
Zn699      Zn  0.64743625  0.74672148  0.74525496     1.49500
O700        O  0.71409323  0.72839821  0.72642012    -1.83000
O701        O  0.78135724  0.64297689  0.77974463    -0.73700
O702        O  0.78184023  0.81782081  0.73417593    -0.73500
O703        O  0.76734883  0.68970715  0.62829671    -0.73000
O704        O  0.81166251  0.71443976  0.78889540    -0.73700
O705        O  0.74557111  0.63013638  0.67523145    -0.73300
O706        O  0.76938561  0.80844631  0.65670854    -0.73900
O707        O  0.61275380  0.77469551  0.68579634    -0.73300
O708        O  0.71935035  0.77902233  0.82423998    -0.74000
O709        O  0.66742590  0.76772695  0.62838751    -0.73400
O710        O  0.64520906  0.79318620  0.80087080    -0.73900
O711        O  0.61379226  0.69024126  0.77869493    -0.73800
O712        O  0.66851736  0.63401470  0.77148038    -0.73600
C713        C  0.81519120  0.66954880  0.79327821     0.78200
C714        C  0.78330593  0.83370956  0.69168896     0.78700
C715        C  0.76790100  0.64560351  0.63883744     0.77700
C716        C  0.62599868  0.78038650  0.64254020     0.78000
C717        C  0.67685195  0.79224702  0.83332346     0.79200
C718        C  0.62888589  0.64872786  0.78778841     0.78200
Zn719      Zn  0.93418717  0.44979671  0.01922362     1.49700
Zn720      Zn  0.95583860  0.55382291  0.99128305     1.49400
Zn721      Zn  0.04056329  0.48131333  0.01885712     1.49100
Zn722      Zn  0.97606670  0.46554578  0.92130724     1.49500
O723        O  0.97714249  0.48878770  0.98698003    -1.83000
O724        O  0.90552405  0.49298766  0.06973050    -0.73700
O725        O  0.01151941  0.59234509  0.02056298    -0.73500
O726        O  0.04558514  0.43045362  0.06728755    -0.73000
O727        O  0.90318381  0.56437837  0.03789213    -0.73700
O728        O  0.97838489  0.39713105  0.04256877    -0.73300
O729        O  0.06522396  0.54203012  0.04893926    -0.73900
O730        O  0.04118226  0.43896905  0.90648747    -0.73300
O731        O  0.92946199  0.57495387  0.92718450    -0.74000
O732        O  0.08595072  0.45569959  0.97017339    -0.73400
O733        O  0.94961198  0.51801064  0.87641765    -0.73900
O734        O  0.93098867  0.41226361  0.90925363    -0.73800
O735        O  0.88527891  0.42407097  0.97194031    -0.73600
C736        C  0.89800533  0.53743599  0.07316379     0.78200
C737        C  0.04986870  0.58394416  0.04424970     0.78700
C738        C  0.02072721  0.39398140  0.05974880     0.77700
C739        C  0.08087548  0.43793017  0.92873809     0.78000
C740        C  0.92953945  0.55768640  0.88519844     0.79200
C741        C  0.89118691  0.40865428  0.92957983     0.78200
C742        C  0.43200390  0.09301230  0.60951196     0.04200
C743        C  0.38958034  0.11840864  0.62257221    -0.11900
C744        C  0.38993520  0.14833919  0.66434654     0.01700
C745        C  0.43288381  0.15346539  0.68921732    -0.10500
C746        C  0.47030961  0.12188518  0.68293188     0.04200
C747        C  0.47180310  0.09741943  0.63990196    -0.09900
H748        H  0.35735293  0.11425839  0.60174692     0.09800
H749        H  0.43466213  0.17800789  0.71854347     0.07300
H750        H  0.50410487  0.07879106  0.63160392     0.07200
C751        C  0.38561898  0.91043673  0.79422137     0.04200
C752        C  0.39992797  0.94934300  0.76645684    -0.11900
C753        C  0.42149663  0.98884123  0.78864948     0.01700
C754        C  0.42744408  0.98972186  0.83774654    -0.10500
C755        C  0.41683177  0.95127221  0.86578885     0.04200
C756        C  0.39591952  0.91134512  0.84420121    -0.09900
H757        H  0.39463867  0.94894262  0.72832649     0.09800
H758        H  0.44598617  0.01936973  0.85415732     0.07300
H759        H  0.38900830  0.88073468  0.86600901     0.07200
C760        C  0.14890907  0.65936661  0.10358144     0.04200
C761        C  0.14087640  0.70038934  0.07704608    -0.11900
C762        C  0.10734843  0.70150212  0.04012785     0.01700
C763        C  0.07109323  0.66799000  0.04068794    -0.10500
C764        C  0.07864610  0.62454140  0.06308944     0.04200
C765        C  0.11784978  0.62019899  0.09569474    -0.09900
H766        H  0.16547803  0.72966296  0.08073908     0.09800
H767        H  0.04289522  0.67139970  0.01458187     0.07300
H768        H  0.12478458  0.58697623  0.11316437     0.07200
C769        C  0.34269658  0.64345693  0.96046348     0.04200
C770        C  0.30002142  0.65895246  0.98157739    -0.11900
C771        C  0.26563069  0.68219945  0.95358757     0.01700
C772        C  0.27313212  0.68952163  0.90553492    -0.10500
C773        C  0.31455550  0.67527583  0.88363258     0.04200
C774        C  0.35009902  0.65307967  0.91111625    -0.09900
H775        H  0.29257482  0.65104035  0.01840981     0.09800
H776        H  0.24594371  0.70742594  0.88479187     0.07300
H777        H  0.38302423  0.64290393  0.89412517     0.07200
Zn778      Zn  0.30839457  0.80938855  0.69226935     1.49700
Zn779      Zn  0.28595238  0.70270142  0.73201114     1.49400
Zn780      Zn  0.29793060  0.78798438  0.80472349     1.49100
Zn781      Zn  0.20896918  0.78523703  0.73531668     1.49500
O782        O  0.27666433  0.77205129  0.73991493    -1.83000
O783        O  0.34432222  0.75567993  0.65044600    -0.73700
O784        O  0.29698441  0.67526974  0.80014504    -0.73500
O785        O  0.33899288  0.84285589  0.80410885    -0.73000
O786        O  0.33968790  0.68587698  0.68677134    -0.73700
O787        O  0.35208504  0.86167593  0.72879322    -0.73300
O788        O  0.33668723  0.73530432  0.83232110    -0.73900
O789        O  0.18485734  0.79812468  0.79947856    -0.73300
O790        O  0.22709432  0.67358764  0.69744860    -0.74000
O791        O  0.24443134  0.80647028  0.85079702    -0.73400
O792        O  0.17440344  0.73161329  0.70088287    -0.73900
O793        O  0.18898993  0.84272342  0.70067855    -0.73800
O794        O  0.25216906  0.84458124  0.65403746    -0.73600
C795        C  0.35388384  0.71077251  0.65202726     0.78200
C796        C  0.32015914  0.69375818  0.83506756     0.78700
C797        C  0.35809926  0.86947890  0.77375854     0.77700
C798        C  0.20026956  0.80790709  0.84092874     0.78000
C799        C  0.18592907  0.69007149  0.68761830     0.79200
C800        C  0.20855272  0.85636219  0.66298777     0.78200
C801        C  0.12452547  0.71827771  0.99284371    -0.04300
C802        C  0.13300604  0.68082528  0.96092898    -0.01400
C803        C  0.17976154  0.66469276  0.95647260     0.03600
C804        C  0.21773468  0.69461493  0.97015453    -0.04300
C805        C  0.20733929  0.74138173  0.98459614    -0.01400
C806        C  0.15960753  0.75383671  0.99388262     0.03600
C807        C  0.09407836  0.65583817  0.93796287     0.38300
C808        C  0.24513186  0.77581804  0.99030125     0.38300
C809        C  0.14716351  0.80014909  0.01120420     0.36700
C810        C  0.18866088  0.61745410  0.93893432     0.36700
N811        N  0.13691107  0.83740010  0.02443104    -0.38100
N812        N  0.19581632  0.57926121  0.92640746    -0.38100
N813        N  0.27537972  0.80330463  0.99480196    -0.37600
N814        N  0.06338319  0.63571118  0.91911491    -0.37600
C815        C  0.49681091  0.10328789  0.72589102    -0.04300
C816        C  0.51512282  0.05727401  0.72077526    -0.01400
C817        C  0.48679640  0.01879392  0.73580876     0.03600
C818        C  0.44541071  0.02789149  0.76313506    -0.04300
C819        C  0.43790107  0.07479108  0.77945625    -0.01400
C820        C  0.47170455  0.10943676  0.76841879     0.03600
C821        C  0.55995148  0.05021539  0.69675977     0.38300
C822        C  0.39581549  0.08752061  0.80613125     0.38300
C823        C  0.47443951  0.15326323  0.79472920     0.36700
C824        C  0.50046832  0.97101839  0.72388130     0.36700
N825        N  0.47598062  0.18794796  0.81645304    -0.38100
N826        N  0.51105141  0.93286863  0.71382239    -0.38100
N827        N  0.36174277  0.09808994  0.82640514    -0.37600
N828        N  0.59568305  0.04454305  0.67733996    -0.37600
C829        C  0.79222308  0.96524866  0.78439390    -0.04300
C830        C  0.82873602  0.94314344  0.81137609    -0.01400
C831        C  0.83106935  0.95157473  0.86048813     0.03600
C832        C  0.80313348  0.98829034  0.87879364    -0.04300
C833        C  0.75773732  0.99183284  0.85873838    -0.01400
C834        C  0.75309056  0.98482478  0.80915955     0.03600
C835        C  0.86245345  0.91119955  0.78941969     0.38300
C836        C  0.72011203  0.00861719  0.88872854     0.38300
C837        C  0.71073209  0.99979767  0.78420349     0.36700
C838        C  0.86673941  0.92908265  0.88991524     0.36700
N839        N  0.67701863  0.01225142  0.76416725    -0.38100
N840        N  0.89537620  0.91094872  0.91314037    -0.38100
N841        N  0.69156643  0.02024177  0.91572343    -0.37600
N842        N  0.88904364  0.88526016  0.77217967    -0.37600
C843        C  0.04475244  0.76201737  0.86325409    -0.04300
C844        C  0.04229788  0.75288674  0.81377246    -0.01400
C845        C  0.00970951  0.71969966  0.79631593     0.03600
C846        C  0.97922784  0.69726098  0.82821897    -0.04300
C847        C  0.97848951  0.70995881  0.87695225    -0.01400
C848        C  0.01196411  0.74186374  0.89463721     0.03600
C849        C  0.07162125  0.77887297  0.78059385     0.38300
C850        C  0.94290826  0.69085596  0.90890080     0.38300
C851        C  0.01275530  0.75375458  0.94495512     0.36700
C852        C  0.00682898  0.70910523  0.74585968     0.36700
N853        N  0.01301020  0.76352749  0.98492983    -0.38100
N854        N  0.00422748  0.70081514  0.70562209    -0.38100
N855        N  0.91457184  0.67635769  0.93473431    -0.37600
N856        N  0.09399795  0.79963641  0.75331274    -0.37600
C857        C  0.71278311  0.43385390  0.99102210    -0.04300
C858        C  0.72459357  0.47736293  0.96925746    -0.01400
C859        C  0.72699478  0.47970836  0.91934472     0.03600
C860        C  0.72420538  0.43739236  0.89323652    -0.04300
C861        C  0.69632086  0.40119736  0.91269955    -0.01400
C862        C  0.69617838  0.39612964  0.96213361     0.03600
C863        C  0.73497060  0.51884893  0.99785709     0.38300
C864        C  0.67280404  0.36688865  0.88223232     0.38300
C865        C  0.67783164  0.35304661  0.98297696     0.36700
C866        C  0.74218485  0.52234390  0.89581415     0.36700
N867        N  0.66389597  0.31855071  0.99982499    -0.38100
N868        N  0.75387698  0.55663036  0.87700017    -0.38100
N869        N  0.65353412  0.33962246  0.85811350    -0.37600
N870        N  0.74328432  0.55204532  0.02054286    -0.37600
C871        C  0.00667964  0.28015401  0.69729540    -0.04300
C872        C  0.01875484  0.32242768  0.67344564    -0.01400
C873        C  0.01516023  0.36535678  0.69799918     0.03600
C874        C  0.98276311  0.36756856  0.73591706    -0.04300
C875        C  0.98425023  0.32794178  0.76596301    -0.01400
C876        C  0.99375862  0.28319973  0.74590255     0.03600
C877        C  0.03783840  0.32150202  0.62566714     0.38300
C878        C  0.97592789  0.33359304  0.81615727     0.38300
C879        C  0.99448821  0.24159443  0.77564261     0.36700
C880        C  0.03766718  0.40774588  0.68028134     0.36700
N881        N  0.99603711  0.20830217  0.79920611    -0.38100
N882        N  0.05564660  0.44150226  0.66584964    -0.38100
N883        N  0.97128740  0.33715038  0.85680678    -0.37600
N884        N  0.05267095  0.32110022  0.58740821    -0.37600
C885        C  0.51444467  0.29146812  0.90556053    -0.04300
C886        C  0.53897741  0.27662961  0.86505689    -0.01400
C887        C  0.57663552  0.24530302  0.86998779     0.03600
C888        C  0.59240463  0.23205410  0.91616627    -0.04300
C889        C  0.56946890  0.24986738  0.95694216    -0.01400
C890        C  0.52945774  0.27850737  0.95152731     0.03600
C891        C  0.52178205  0.28899797  0.81790442     0.38300
C892        C  0.58314239  0.23385928  0.00402301     0.38300
C893        C  0.50093025  0.29077814  0.99267891     0.36700
C894        C  0.59243705  0.22130115  0.82716961     0.36700
N895        N  0.47759062  0.30024931  0.02508124    -0.38100
N896        N  0.60194061  0.20260738  0.79184845    -0.38100
N897        N  0.59317778  0.22045145  0.04152270    -0.37600
N898        N  0.50692320  0.29680003  0.78037424    -0.37600
C899        C  0.18232464  0.88898935  0.49614607    -0.04300
C900        C  0.19381079  0.93581901  0.48382241    -0.01400
C901        C  0.22743540  0.94386187  0.44885066     0.03600
C902        C  0.24427179  0.90550901  0.42181960    -0.04300
C903        C  0.23123437  0.85849354  0.43334129    -0.01400
C904        C  0.20138579  0.85041370  0.47172139     0.03600
C905        C  0.17607154  0.97574539  0.51110963     0.38300
C906        C  0.25395637  0.81801885  0.41114894     0.38300
C907        C  0.19584002  0.80298240  0.49033172     0.36700
C908        C  0.24939255  0.99027790  0.44648234     0.36700
N909        N  0.19308314  0.76547970  0.50612141    -0.38100
N910        N  0.26732715  0.02706166  0.44781514    -0.38100
N911        N  0.27209099  0.78522910  0.39473428    -0.37600
N912        N  0.16279074  0.00817926  0.53224708    -0.37600
C913        C  0.27697919  0.50301967  0.27945088    -0.04300
C914        C  0.30091896  0.52250964  0.23990942    -0.01400
C915        C  0.27423659  0.53193001  0.19926071     0.03600
C916        C  0.23928207  0.49863912  0.18713268    -0.04300
C917        C  0.21095067  0.48375479  0.22586060    -0.01400
C918        C  0.22997097  0.48624852  0.27265623     0.03600
C919        C  0.35090665  0.53533016  0.24154536     0.38300
C920        C  0.16409547  0.46465925  0.21670114     0.38300
C921        C  0.20256572  0.47160724  0.31331295     0.36700
C922        C  0.28705196  0.56981358  0.16739492     0.36700
N923        N  0.18209057  0.46012287  0.34686806    -0.38100
N924        N  0.29730267  0.60036299  0.14227440    -0.38100
N925        N  0.12682674  0.44904635  0.20873620    -0.37600
N926        N  0.39096825  0.54495197  0.24207377    -0.37600
C927        C  0.74248330  0.79159316  0.98323610    -0.04300
C928        C  0.76761024  0.75030531  0.99494779    -0.01400
C929        C  0.81501018  0.75381632  0.01090285     0.03600
C930        C  0.83622496  0.79888013  0.01699571    -0.04300
C931        C  0.81204503  0.83965574  0.00090612    -0.01400
C932        C  0.76642897  0.83543753  0.98189125     0.03600
C933        C  0.74448569  0.70459017  0.99119467     0.38300
C934        C  0.83033423  0.88704428  0.00957323     0.38300
C935        C  0.74429504  0.87675157  0.96081579     0.36700
C936        C  0.84004920  0.71175985  0.02615933     0.36700
N937        N  0.72701121  0.90970379  0.94399833    -0.38100
N938        N  0.85952800  0.67824939  0.03908623    -0.38100
N939        N  0.84378437  0.92504273  0.01688248    -0.37600
N940        N  0.72609623  0.66812598  0.98786013    -0.37600
C941        C  0.00294194  0.78524814  0.45015412    -0.04300
C942        C  0.03569794  0.80157104  0.41605140    -0.01400
C943        C  0.08346953  0.78903998  0.42036077     0.03600
C944        C  0.09631730  0.75565904  0.45500165    -0.04300
C945        C  0.06815889  0.75314306  0.49625736    -0.01400
C946        C  0.01999103  0.76585764  0.49302330     0.03600
C947        C  0.02042659  0.83229333  0.37770164     0.38300
C948        C  0.08665335  0.73033924  0.53834966     0.38300
C949        C  0.98830055  0.75893268  0.53290891     0.36700
C950        C  0.11791593  0.80670114  0.38677388     0.36700
N951        N  0.96295248  0.75383204  0.56476286    -0.38100
N952        N  0.14595887  0.82033636  0.36019012    -0.38100
N953        N  0.10128363  0.71231876  0.57217548    -0.37600
N954        N  0.00780146  0.85719141  0.34774884    -0.37600
C955        C  0.73820847  0.01386947  0.23321394    -0.04300
C956        C  0.73441154  0.04122862  0.27593366    -0.01400
C957        C  0.75892098  0.02621079  0.31680918     0.03600
C958        C  0.76888204  0.97826217  0.31886419    -0.04300
C959        C  0.78932684  0.96049467  0.27657061    -0.01400
C960        C  0.77007729  0.97551392  0.23280102     0.03600
C961        C  0.70265904  0.08124113  0.27928791     0.38300
C962        C  0.82708782  0.92600952  0.27871807     0.38300
C963        C  0.78357998  0.95298851  0.18864323     0.36700
C964        C  0.76147292  0.05387139  0.36006942     0.36700
N965        N  0.79441828  0.93494341  0.15337590    -0.38100
N966        N  0.76384036  0.07489699  0.39533396    -0.38100
N967        N  0.85719217  0.89831763  0.28048296    -0.37600
N968        N  0.67642662  0.11245207  0.28239162    -0.37600
C969        C  0.02144972  0.44143408  0.26559088    -0.04300
C970        C  0.03580000  0.48829322  0.27638156    -0.01400
C971        C  0.01609577  0.52508618  0.24937972     0.03600
C972        C  0.98720555  0.51282414  0.21011471    -0.04300
C973        C  0.99055583  0.46524757  0.19201726    -0.01400
C974        C  0.01808496  0.43236767  0.21731369     0.03600
C975        C  0.06696103  0.49849454  0.31606226     0.38300
C976        C  0.95785336  0.44598819  0.15710830     0.38300
C977        C  0.02344966  0.38383898  0.20194108     0.36700
C978        C  0.02456791  0.57398832  0.26213399     0.36700
N979        N  0.02610579  0.34427824  0.19219332    -0.38100
N980        N  0.03121167  0.61308694  0.27222437    -0.38100
N981        N  0.93116688  0.42758592  0.13165968    -0.37600
N982        N  0.09125134  0.50766673  0.34809357    -0.37600
C983        C  0.14030874  0.51099342  0.81182784    -0.04300
C984        C  0.16549347  0.55349176  0.80975573    -0.01400
C985        C  0.14275538  0.59334866  0.79173464     0.03600
C986        C  0.09895211  0.58792916  0.76684923    -0.04300
C987        C  0.07070347  0.54815051  0.77634559    -0.01400
C988        C  0.09198930  0.50872876  0.79713033     0.03600
C989        C  0.21545725  0.55537346  0.82295949     0.38300
C990        C  0.02214289  0.54572908  0.75862570     0.38300
C991        C  0.06520637  0.46505987  0.80056220     0.36700
C992        C  0.16506367  0.63907089  0.79835235     0.36700
N993        N  0.04416775  0.43003522  0.80296055    -0.38100
N994        N  0.18287007  0.67543619  0.80472778    -0.38100
N995        N  0.98348763  0.54335044  0.74438989    -0.37600
N996        N  0.25554890  0.55682388  0.83251367    -0.37600
C997        C  0.30555859  0.15324875  0.99672647    -0.04300
C998        C  0.35299339  0.13998239  0.98634713    -0.01400
C999        C  0.39055122  0.16929201  0.00142219     0.03600
C1000       C  0.38175375  0.20214341  0.03811103    -0.04300
C1001       C  0.33712301  0.22438700  0.03494670    -0.01400
C1002       C  0.29776475  0.19784367  0.01839598     0.03600
C1003       C  0.36287128  0.09771697  0.95879743     0.46300
C1004       C  0.33161013  0.27145912  0.05391861     0.38300
C1005       C  0.25006476  0.21663003  0.02269643     0.36700
C1006       C  0.43827090  0.16210821  0.98410283     0.36700
N1007       N  0.21186185  0.23121305  0.02649058    -0.38100
N1008       N  0.47608456  0.15592388  0.96946657    -0.38100
N1009       N  0.32743784  0.30942294  0.06845543    -0.37600
N1010       N  0.37057900  0.06399661  0.93686551    -0.37600
C1011       C  0.57815659  0.48431631  0.80195781    -0.04300
C1012       C  0.53294329  0.46274434  0.79790264    -0.01400
C1013       C  0.52852562  0.41961982  0.77386857     0.03600
C1014       C  0.56957201  0.39785784  0.75543500    -0.04300
C1015       C  0.61540167  0.41731216  0.76478630    -0.01400
C1016       C  0.61936428  0.46110601  0.78703553     0.03600
C1017       C  0.49068614  0.48654783  0.81517609     0.38300
C1018       C  0.65858832  0.39609913  0.74636846     0.38300
C1019       C  0.66562905  0.48396183  0.79110513     0.36700
C1020       C  0.48156174  0.40048838  0.76352763     0.36700
N1021       N  0.70245709  0.50225188  0.79292059    -0.38100
N1022       N  0.44398327  0.38576858  0.75500074    -0.38100
N1023       N  0.69367390  0.38049786  0.73192871    -0.37600
N1024       N  0.45698677  0.50541106  0.82897050    -0.37600
C1025       C  0.51055985  0.32286915  0.23333188    -0.04300
C1026       C  0.52506849  0.27815008  0.21632214    -0.01400
C1027       C  0.50511080  0.23743519  0.23675671     0.03600
C1028       C  0.46559911  0.24267362  0.26691481    -0.04300
C1029       C  0.44282729  0.28768644  0.26943373    -0.01400
C1030       C  0.46228275  0.32578819  0.24437897     0.03600
C1031       C  0.56038932  0.27450276  0.17934357     0.38300
C1032       C  0.40288369  0.29634155  0.30076130     0.38300
C1033       C  0.43836125  0.37089909  0.24168112     0.36700
C1034       C  0.52467459  0.19127936  0.22671256     0.36700
N1035       N  0.41907209  0.40683333  0.23966761    -0.38100
N1036       N  0.54056947  0.15444682  0.21903985    -0.38100
N1037       N  0.37162415  0.30394042  0.32624744    -0.37600
N1038       N  0.58855649  0.27150340  0.14966371    -0.37600
C1039       C  0.16866930  0.24529953  0.47622049    -0.04300
C1040       C  0.21647961  0.23570455  0.46549271    -0.01400
C1041       C  0.25184289  0.26204250  0.48954992     0.03600
C1042       C  0.23748596  0.29229991  0.52745824    -0.04300
C1043       C  0.19320904  0.27848163  0.55016643    -0.01400
C1044       C  0.16090990  0.24987289  0.52442269     0.03600
C1045       C  0.22807130  0.19862441  0.43203302     0.38300
C1046       C  0.17942592  0.29067224  0.59806756     0.38300
C1047       C  0.11642806  0.23256949  0.54325221     0.36700
C1048       C  0.30144475  0.25267134  0.47963866     0.36700
N1049       N  0.08068947  0.21785879  0.55710813    -0.38100
N1050       N  0.34096648  0.24452857  0.47176506    -0.38100
N1051       N  0.16658600  0.30060086  0.63581519    -0.37600
N1052       N  0.23736234  0.16871611  0.40557420    -0.37600
C1053       C  0.49626957  0.75725848  0.52162793    -0.04300
C1054       C  0.49867328  0.71876234  0.49003119    -0.01400
C1055       C  0.45632745  0.70355219  0.46777506     0.03600
C1056       C  0.41241699  0.72085371  0.48501939    -0.04300
C1057       C  0.41401548  0.76893293  0.49607223    -0.01400
C1058       C  0.45362219  0.78447793  0.52263340     0.03600
C1059       C  0.54393611  0.69720618  0.47859654     0.38300
C1060       C  0.37168037  0.79735805  0.49103951     0.38300
C1061       C  0.45006592  0.82698347  0.55126486     0.36700
C1062       C  0.45796120  0.67065627  0.42870793     0.36700
N1063       N  0.44707291  0.86058855  0.57453346    -0.38100
N1064       N  0.46166611  0.64467868  0.39723908    -0.38100
N1065       N  0.33803320  0.82046421  0.48741431    -0.37600
N1066       N  0.58008319  0.68010132  0.46939153    -0.37600
C1067       C  0.18078993  0.99320001  0.35755257    -0.04300
C1068       C  0.15485699  0.95147113  0.34941868    -0.01400
C1069       C  0.15595074  0.93206108  0.30375457     0.03600
C1070       C  0.18937270  0.94962632  0.27097666    -0.04300
C1071       C  0.22669289  0.97896033  0.28640339    -0.01400
C1072       C  0.22313580  0.00026244  0.33128998     0.03600
C1073       C  0.12138677  0.93427495  0.38429637     0.38300
C1074       C  0.26603030  0.98982900  0.25512399     0.38300
C1075       C  0.25500768  0.03869259  0.34346736     0.36700
C1076       C  0.12105972  0.89685456  0.28928870     0.36700
N1077       N  0.28064721  0.06947441  0.35254586    -0.38100
N1078       N  0.09359954  0.86876866  0.27699398    -0.38100
N1079       N  0.29758524  0.99836297  0.23031914    -0.37600
N1080       N  0.09501216  0.92033959  0.41241831    -0.37600
C1081       C  0.48247898  0.84305652  0.26207119    -0.04300
C1082       C  0.52966225  0.85129549  0.24824280    -0.01400
C1083       C  0.55194161  0.81343025  0.22469117     0.03600
C1084       C  0.53255777  0.76705527  0.23123171    -0.04300
C1085       C  0.50030601  0.76052974  0.26889205    -0.01400
C1086       C  0.47936587  0.80107690  0.28894744     0.03600
C1087       C  0.54879225  0.89875468  0.24739472     0.38300
C1088       C  0.48936436  0.71378196  0.28613363     0.38300
C1089       C  0.45009146  0.79796047  0.33075166     0.36700
C1090       C  0.59184827  0.82269026  0.19358411     0.36700
N1091       N  0.42743759  0.79417022  0.36474804    -0.38100
N1092       N  0.62388160  0.83026660  0.16905729    -0.38100
N1093       N  0.48110240  0.67594159  0.29891168    -0.37600
N1094       N  0.56393022  0.93674364  0.24609972    -0.37600
C1095       C  0.74170197  0.51828085  0.48497535    -0.04300
C1096       C  0.71303828  0.51683651  0.52691606    -0.01400
C1097       C  0.72840836  0.48887668  0.56513607     0.03600
C1098       C  0.77743267  0.48218378  0.56798974    -0.04300
C1099       C  0.79540250  0.46462622  0.52446635    -0.01400
C1100       C  0.78127050  0.48799132  0.48252132     0.03600
C1101       C  0.67203980  0.54699300  0.53298390     0.38300
C1102       C  0.83029326  0.42750043  0.52367869     0.38300
C1103       C  0.80600296  0.48132803  0.43818487     0.36700
C1104       C  0.69851048  0.47794365  0.60529313     0.36700
N1105       N  0.82502555  0.47768733  0.40206390    -0.38100
N1106       N  0.67463529  0.46871162  0.63733206    -0.38100
N1107       N  0.85783820  0.39739135  0.52165569    -0.37600
N1108       N  0.64011436  0.57199067  0.53877265    -0.37600
C1109       C  0.65504548  0.25448774  0.50791217    -0.04300
C1110       C  0.66066560  0.23932163  0.46089443    -0.01400
C1111       C  0.70445106  0.21761924  0.45046414     0.03600
C1112       C  0.74416059  0.22705163  0.48128905    -0.04300
C1113       C  0.73996709  0.26531422  0.51327157    -0.01400
C1114       C  0.69402415  0.28338345  0.52156364     0.03600
C1115       C  0.62075671  0.23875289  0.42822799     0.38300
C1116       C  0.78159312  0.28715363  0.53428808     0.38300
C1117       C  0.68784278  0.33291153  0.53136710     0.36700
C1118       C  0.70827588  0.18783085  0.40878720     0.36700
N1119       N  0.68405633  0.37298954  0.53829656    -0.38100
N1120       N  0.71053063  0.16433908  0.37517937    -0.38100
N1121       N  0.81533717  0.30402057  0.55087798    -0.37600
N1122       N  0.58894549  0.23840442  0.40192943    -0.37600
C1123       C  0.89125398  0.21387760  0.99129905    -0.04300
C1124       C  0.89347439  0.25954216  0.01044404    -0.01400
C1125       C  0.93544668  0.26966278  0.03606769     0.03600
C1126       C  0.97857227  0.24676641  0.02217025    -0.04300
C1127       C  0.97675101  0.21789727  0.98092255    -0.01400
C1128       C  0.93129370  0.20540762  0.96251946     0.03600
C1129       C  0.85067522  0.28716627  0.01611959     0.38300
C1130       C  0.01965751  0.20529590  0.95578971     0.38300
C1131       C  0.92410353  0.19841938  0.91244302     0.36700
C1132       C  0.93356811  0.30053465  0.07717611     0.36700
N1133       N  0.91795641  0.19553695  0.87192445    -0.38100
N1134       N  0.93186950  0.32419750  0.11070800    -0.38100
N1135       N  0.05396126  0.19519951  0.93564794    -0.37600
N1136       N  0.81642553  0.30914647  0.02105336    -0.37600
loop_ 
_geom_bond_atom_site_label_1 
_geom_bond_atom_site_label_2 
_geom_bond_distance 
_geom_bond_site_symmetry_2 
_ccdc_geom_bond_type 
Zn1           O5   2.013   1_565  S
Zn1           O6   2.049       .  S
Zn1          O10   2.107   1_455  S
Zn1          O17   2.074   1_465  S
Zn2           O5   1.955   1_565  S
Zn2           O7   2.007   1_554  S
Zn2           O9   1.970       .  S
Zn2          O13   2.020   1_564  S
Zn3           O5   1.910   1_566  S
Zn3           O8   2.102   1_456  S
Zn3          O11   2.027       .  S
Zn3          O14   2.057   1_465  S
Zn4           O5   1.991   1_556  S
Zn4          O12   2.084   1_455  S
Zn4          O15   2.081       .  S
Zn4          O16   2.031   1_556  S
O6           C18   1.282       .  A
O7           C19   1.267       .  A
O8           C20   1.288       .  A
O9           C18   1.269       .  A
O10          C20   1.275       .  A
O11          C19   1.280       .  A
O12          C21   1.275       .  A
O13          C22   1.273       .  A
O14          C21   1.286       .  A
O15          C22   1.279       .  A
O16          C23   1.282   1_455  A
O17          C23   1.282       .  A
C18         C151   1.463       .  S
C19         C660   1.483       .  S
C20         C460   1.534       .  S
C21         C678   1.505       .  S
C22         C333   1.488       .  S
C23          C33   1.487       .  S
C24         C200   1.493       .  S
C24          C25   1.417       .  A
C24          C29   1.425       .  A
C25          C26   1.412       .  A
C25          H30   1.083       .  S
C26        C1126   1.478   1_455  S
C26          C27   1.382       .  A
C27          C28   1.383       .  A
C27          H31   1.088   1_554  S
C28         C738   1.482       .  S
C28          C29   1.413       .  A
C29          H32   1.083       .  S
C33          C34   1.404       .  A
C33          C38   1.420       .  A
C34          C35   1.398       .  A
C34          H39   1.084       .  S
C35        C1123   1.517   1_554  S
C35          C36   1.403       .  A
C36          C37   1.399       .  A
C36          H40   1.082       .  S
C37          C79   1.491       .  S
C37          C38   1.426       .  A
C38          H41   1.083       .  S
C42          C77   1.498       .  S
C42          C43   1.424       .  A
C42          C47   1.392       .  A
C43          C44   1.437       .  A
C43          H48   1.083       .  S
C44         C561   1.501       .  S
C44          C45   1.411       .  A
C45          C46   1.400       .  A
C45          H49   1.083       .  S
C46        C1112   1.467       .  S
C46          C47   1.371       .  A
C47          H50   1.085       .  S
C51         C245   1.486       .  S
C51          C52   1.424       .  A
C51          C56   1.405       .  A
C52          C53   1.412       .  A
C52          H57   1.083       .  S
C53         C657   1.499       .  S
C53          C54   1.400       .  A
C54          C55   1.402       .  A
C54          H58   1.070       .  S
C55        C1109   1.521       .  S
C55          C56   1.405       .  A
C56          H59   1.082       .  S
Zn60         O64   1.978       .  S
Zn60         O65   2.080       .  S
Zn60         O69   2.002       .  S
Zn60         O76   2.005       .  S
Zn61         O64   1.928       .  S
Zn61         O66   2.005       .  S
Zn61         O68   1.970       .  S
Zn61         O72   2.051       .  S
Zn62         O64   1.914       .  S
Zn62         O67   2.101       .  S
Zn62         O70   2.129       .  S
Zn62         O73   2.134       .  S
Zn63         O64   1.986       .  S
Zn63         O71   2.054       .  S
Zn63         O74   2.014       .  S
Zn63         O75   2.122       .  S
O65          C77   1.273       .  A
O66          C78   1.270       .  A
O67          C79   1.291       .  A
O68          C77   1.275       .  A
O69          C79   1.267       .  A
O70          C78   1.290       .  A
O71          C80   1.275       .  A
O72          C81   1.275       .  A
O73          C80   1.294       .  A
O74          C81   1.280       .  A
O75          C82   1.279       .  A
O76          C82   1.280       .  A
C78         C406   1.509       .  S
C80         C621   1.514       .  S
C81         C265   1.481       .  S
C82         C428   1.517       .  S
C83         C121   1.479       .  S
C83          C84   1.390       .  A
C83          C88   1.424       .  A
C84          C85   1.390       .  A
C84          H89   1.084       .  S
C85        C1098   1.517       .  S
C85          C86   1.417       .  A
C86          C87   1.411       .  A
C86          H90   1.080       .  S
C87         C715   1.509       .  S
C87          C88   1.428       .  A
C88          H91   1.082       .  S
C92         C499   1.498       .  S
C92          C93   1.412       .  A
C92          C97   1.439       .  A
C93          C94   1.402       .  A
C93          H98   1.083       .  S
C94        C1095   1.473       .  S
C94          C95   1.373       .  A
C95          C96   1.391       .  A
C95          H99   1.086       .  S
C96         C318   1.507       .  S
C96          C97   1.430       .  A
C97         H100   1.082       .  S
Zn101       O105   2.014       .  S
Zn101       O106   2.125       .  S
Zn101       O110   2.173       .  S
Zn101       O117   2.022       .  S
Zn102       O105   1.993   1_655  S
Zn102       O107   2.060       .  S
Zn102       O109   2.072   1_655  S
Zn102       O113   2.013       .  S
Zn103       O105   1.936   1_655  S
Zn103       O108   1.963   1_655  S
Zn103       O111   2.041       .  S
Zn103       O114   2.019       .  S
Zn104       O105   1.941   1_655  S
Zn104       O112   2.085       .  S
Zn104       O115   2.023       .  S
Zn104       O116   2.071   1_655  S
O106        C118   1.288       .  A
O107        C119   1.277       .  A
O108        C120   1.272       .  A
O109        C118   1.282       .  A
O110        C120   1.289       .  A
O111        C119   1.280       .  A
O112        C121   1.282       .  A
O113        C122   1.267       .  A
O114        C121   1.264       .  A
O115        C122   1.280       .  A
O116        C123   1.286       .  A
O117        C123   1.272       .  A
C118        C256   1.510       .  S
C119        C610   1.497       .  S
C120        C351   1.510       .  S
C122        C410   1.465       .  S
C123        C442   1.480       .  S
C124        C180   1.486       .  S
C124        C125   1.398       .  A
C124        C129   1.414       .  A
C125        C126   1.402       .  A
C125        H130   1.076       .  S
C126       C1081   1.521       .  S
C126        C127   1.408       .  A
C127        C128   1.403       .  A
C127        H131   1.080       .  S
C128        C402   1.485       .  S
C128        C129   1.417       .  A
C129        H132   1.083       .  S
C133        C540   1.520       .  S
C133        C134   1.444       .  A
C133        C138   1.416       .  A
C134        C135   1.420       .  A
C134        H139   1.083       .  S
C135        C498   1.481       .  S
C135        C136   1.374       .  A
C136        C137   1.372       .  A
C136        H140   1.089       .  S
C137       C1084   1.472       .  S
C137        C138   1.417       .  A
C138        H141   1.083       .  S
C142        C559   1.503       .  S
C142        C143   1.448       .  A
C142        C147   1.400       .  A
C143        C144   1.440       .  A
C143        H148   1.083       .  S
C144        C201   1.526       .  S
C144        C145   1.393       .  A
C145        C146   1.390       .  A
C145        H149   1.082       .  S
C146       C1067   1.475   1_545  S
C146        C147   1.385       .  A
C147        H150   1.083       .  S
C151        C152   1.398       .  A
C151        C156   1.416       .  A
C152        C153   1.397       .  A
C152        H157   1.085       .  S
C153       C1070   1.451       .  S
C153        C154   1.375       .  A
C154        C155   1.383       .  A
C154        H158   1.079       .  S
C155        C181   1.453       .  S
C155        C156   1.401       .  A
C156        H159   1.081       .  S
Zn160       O164   1.937       .  S
Zn160       O165   2.038       .  S
Zn160       O169   2.012       .  S
Zn160       O176   2.108       .  S
Zn161       O164   1.862       .  S
Zn161       O166   2.027       .  S
Zn161       O168   2.045       .  S
Zn161       O172   2.014       .  S
Zn162       O164   1.969       .  S
Zn162       O167   2.052       .  S
Zn162       O170   2.097       .  S
Zn162       O173   2.015       .  S
Zn163       O164   1.967       .  S
Zn163       O171   2.050       .  S
Zn163       O174   1.998       .  S
Zn163       O175   2.027       .  S
O165        C177   1.268       .  A
O166        C178   1.280       .  A
O167        C179   1.276       .  A
O168        C177   1.280       .  A
O169        C179   1.286       .  A
O170        C178   1.272       .  A
O171        C180   1.272       .  A
O172        C181   1.275       .  A
O173        C180   1.277       .  A
O174        C181   1.268       .  A
O175        C182   1.282       .  A
O176        C182   1.282       .  A
C177        C444   1.495       .  S
C178        C569   1.513       .  S
C179        C501   1.487       .  S
C182        C760   1.507       .  S
Zn183       O187   1.953       .  S
Zn183       O188   2.058       .  S
Zn183       O192   2.039       .  S
Zn183       O199   2.048       .  S
Zn184       O187   2.013       .  S
Zn184       O189   2.137       .  S
Zn184       O191   2.088       .  S
Zn184       O195   2.052       .  S
Zn185       O187   1.997       .  S
Zn185       O190   2.110       .  S
Zn185       O193   2.019       .  S
Zn185       O196   2.036       .  S
Zn186       O187   1.950       .  S
Zn186       O194   2.053       .  S
Zn186       O197   2.055       .  S
Zn186       O198   2.076       .  S
O188        C200   1.281       .  A
O189        C201   1.283       .  A
O190        C202   1.280       .  A
O191        C200   1.284       .  A
O192        C202   1.282       .  A
O193        C201   1.286       .  A
O194        C203   1.284       .  A
O195        C204   1.274       .  A
O196        C203   1.266       .  A
O197        C204   1.283       .  A
O198        C205   1.279       .  A
O199        C205   1.275       .  A
C202        C324   1.514       .  S
C203        C274   1.490       .  S
C204        C260   1.480       .  S
C205        C510   1.490       .  S
C206        C242   1.504       .  S
C206        C207   1.429       .  A
C206        C211   1.391       .  A
C207        C208   1.438       .  A
C207        H212   1.083       .  S
C208        C716   1.494       .  S
C208        C209   1.407       .  A
C209        C210   1.398       .  A
C209        H213   1.083       .  S
C210       C1053   1.467       .  S
C210        C211   1.375       .  A
C211        H214   1.085       .  S
C215        C795   1.524       .  S
C215        C216   1.401       .  A
C215        C220   1.451       .  A
C216        C217   1.408       .  A
C216        H221   1.079       .  S
C217       C1056   1.510       .  S
C217        C218   1.386       .  A
C218        C219   1.403       .  A
C218        H222   1.082       .  S
C219        C320   1.528       .  S
C219        C220   1.441       .  A
C220        H223   1.082       .  S
Zn224       O228   1.973       .  S
Zn224       O229   2.142       .  S
Zn224       O233   2.057   1_545  S
Zn224       O240   2.022       .  S
Zn225       O228   1.999       .  S
Zn225       O230   2.088   1_545  S
Zn225       O232   2.038       .  S
Zn225       O236   2.011       .  S
Zn226       O228   1.964   1_565  S
Zn226       O231   2.039       .  S
Zn226       O234   1.990       .  S
Zn226       O237   1.985       .  S
Zn227       O228   1.947       .  S
Zn227       O235   2.137       .  S
Zn227       O238   2.072       .  S
Zn227       O239   2.141       .  S
O229        C241   1.283       .  A
O230        C242   1.273       .  A
O231        C243   1.271       .  A
O232        C241   1.283       .  A
O233        C243   1.291       .  A
O234        C242   1.277       .  A
O235        C244   1.291   1_545  A
O236        C245   1.271       .  A
O237        C244   1.264       .  A
O238        C245   1.286       .  A
O239        C246   1.292       .  A
O240        C246   1.272       .  A
C241        C742   1.529       .  S
C243        C565   1.495       .  S
C244        C433   1.507       .  S
C246        C278   1.513       .  S
C247        C377   1.461       .  S
C247        C248   1.378       .  A
C247        C252   1.401       .  A
C248        C249   1.388       .  A
C248        H253   1.089       .  S
C249       C1042   1.522       .  S
C249        C250   1.428       .  A
C250        C251   1.421       .  A
C250        H254   1.080       .  S
C251        C321   1.491       .  S
C251        C252   1.416       .  A
C252        H255   1.083       .  S
C256        C257   1.408       .  A
C256        C261   1.431       .  A
C257        C258   1.421       .  A
C257        H262   1.082       .  S
C258       C1039   1.500       .  S
C258        C259   1.382       .  A
C259        C260   1.386       .  A
C259        H263   1.084       .  S
C260        C261   1.425       .  A
C261        H264   1.082       .  S
C265        C266   1.396       .  A
C265        C270   1.415       .  A
C266        C267   1.388       .  A
C266        H271   1.079       .  S
C267       C1025   1.505       .  S
C267        C268   1.412       .  A
C268        C269   1.403       .  A
C268        H272   1.079       .  S
C269        C322   1.494       .  S
C269        C270   1.423       .  A
C270        H273   1.083       .  S
C274        C275   1.380       .  A
C274        C279   1.424       .  A
C275        C276   1.377       .  A
C275        H280   1.088       .  S
C276       C1028   1.479       .  S
C276        C277   1.408       .  A
C277        C278   1.415       .  A
C277        H281   1.083       .  S
C278        C279   1.441       .  A
C279        H282   1.081       .  S
C283        C541   1.473       .  S
C283        C284   1.385       .  A
C283        C288   1.429       .  A
C284        C285   1.371       .  A
C284        H289   1.088       .  S
C285       C1011   1.453       .  S
C285        C286   1.388       .  A
C286        C287   1.397       .  A
C286        H290   1.085       .  S
C287        C718   1.489       .  S
C287        C288   1.434       .  A
C288        H291   1.082       .  S
C292        C659   1.525       .  S
C292        C293   1.403       .  A
C292        C297   1.446       .  A
C293        C294   1.382       .  A
C293        H298   1.084       .  S
C294       C1014   1.465       .  S
C294        C295   1.383       .  A
C295        C296   1.393       .  A
C295        H299   1.085       .  S
C296        C319   1.522       .  S
C296        C297   1.447       .  A
C297        H300   1.065       .  S
Zn301       O305   1.987       .  S
Zn301       O306   2.085       .  S
Zn301       O310   2.026       .  S
Zn301       O317   2.040       .  S
Zn302       O305   1.968       .  S
Zn302       O307   2.094       .  S
Zn302       O309   2.003       .  S
Zn302       O313   2.008       .  S
Zn303       O305   1.966       .  S
Zn303       O308   2.155       .  S
Zn303       O311   2.080       .  S
Zn303       O314   2.007       .  S
Zn304       O305   1.956       .  S
Zn304       O312   2.079       .  S
Zn304       O315   2.058       .  S
Zn304       O316   2.031       .  S
O306        C318   1.275       .  A
O307        C319   1.277       .  A
O308        C320   1.285       .  A
O309        C318   1.283       .  A
O310        C320   1.283       .  A
O311        C319   1.291       .  A
O312        C321   1.281       .  A
O313        C322   1.267       .  A
O314        C321   1.274       .  A
O315        C322   1.283       .  A
O316        C323   1.277       .  A
O317        C323   1.273       .  A
C323        C503   1.490       .  S
C324        C325   1.446       .  A
C324        C329   1.411       .  A
C325        C326   1.450       .  A
C325        H330   1.082       .  S
C326        C400   1.518       .  S
C326        C327   1.417       .  A
C327        C328   1.388       .  A
C327        H331   1.082       .  S
C328       C1000   1.519       .  S
C328        C329   1.390       .  A
C329        H332   1.084       .  S
C333        C334   1.420       .  A
C333        C338   1.413       .  A
C334        C335   1.416       .  A
C334        H339   1.083       .  S
C335        C380   1.469       .  S
C335        C336   1.380       .  A
C336        C337   1.379       .  A
C336        H340   1.086       .  S
C337        C997   1.475       .  S
C337        C338   1.405       .  A
C338        H341   1.084   1_556  S
C342        C382   1.484       .  S
C342        C343   1.404       .  A
C342        C347   1.422       .  A
C343        C344   1.386       .  A
C343        H348   1.084       .  S
C344        C983   1.457       .  S
C344        C345   1.379       .  A
C345        C346   1.387       .  A
C345        H349   1.088       .  S
C346        C739   1.464       .  S
C346        C347   1.423       .  A
C347        H350   1.083       .  S
C351        C352   1.401       .  A
C351        C356   1.432       .  A
C352        C353   1.403       .  A
C352        H357   1.083       .  S
C353        C986   1.481       .  S
C353        C354   1.381       .  A
C354        C355   1.393       .  A
C354        H358   1.084       .  S
C355        C799   1.490       .  S
C355        C356   1.439       .  A
C356        H359   1.082       .  S
Zn360       O364   1.982       .  S
Zn360       O365   2.000       .  S
Zn360       O369   2.019       .  S
Zn360       O376   1.962       .  S
Zn361       O364   2.001       .  S
Zn361       O366   2.080       .  S
Zn361       O368   2.008       .  S
Zn361       O372   2.095       .  S
Zn362       O364   1.898       .  S
Zn362       O367   2.119       .  S
Zn362       O370   2.100       .  S
Zn362       O373   2.042       .  S
Zn363       O364   1.972       .  S
Zn363       O371   1.958       .  S
Zn363       O374   1.962       .  S
Zn363       O375   2.078       .  S
O365        C377   1.269       .  A
O366        C378   1.273       .  A
O367        C379   1.290       .  A
O368        C377   1.281       .  A
O369        C379   1.265       .  A
O370        C378   1.291       .  A
O371        C380   1.263       .  A
O372        C381   1.278       .  A
O373        C380   1.285       .  A
O374        C381   1.272       .  A
O375        C382   1.275       .  A
O376        C382   1.270       .  A
C378        C744   1.522       .  S
C379        C587   1.507       .  S
C381        C601   1.480       .  S
Zn383       O387   2.043       .  S
Zn383       O388   2.136   1_565  S
Zn383       O392   2.039       .  S
Zn383       O399   2.108   1_554  S
Zn384       O387   1.920   1_545  S
Zn384       O389   2.025       .  S
Zn384       O391   2.007       .  S
Zn384       O395   1.999   1_554  S
Zn385       O387   1.949       .  S
Zn385       O390   2.063       .  S
Zn385       O393   2.145       .  S
Zn385       O396   2.107       .  S
Zn386       O387   1.989   1_556  S
Zn386       O394   1.972       .  S
Zn386       O397   2.069   1_565  S
Zn386       O398   1.962       .  S
O388        C400   1.281       .  A
O389        C401   1.268       .  A
O390        C402   1.286       .  A
O391        C400   1.277       .  A
O392        C402   1.276       .  A
O393        C401   1.290   1_565  A
O394        C403   1.265       .  A
O395        C404   1.280       .  A
O396        C403   1.288   1_554  A
O397        C404   1.270       .  A
O398        C405   1.271       .  A
O399        C405   1.283       .  A
C401        C424   1.516       .  S
C403        C471   1.494       .  S
C404        C592   1.499       .  S
C405        C755   1.480       .  S
C406        C407   1.407       .  A
C406        C411   1.422       .  A
C407        C408   1.431       .  A
C407        H412   1.078       .  S
C408        C969   1.511   1_655  S
C408        C409   1.381       .  A
C409        C410   1.384       .  A
C409        H413   1.078   1_655  S
C410        C411   1.412       .  A
C411        H414   1.081       .  S
C415        C500   1.498       .  S
C415        C416   1.416       .  A
C415        C420   1.427       .  A
C416        C417   1.417       .  A
C416        H421   1.083       .  S
C417        C972   1.490       .  S
C417        C418   1.374       .  A
C418        C419   1.384       .  A
C418        H422   1.087       .  S
C419        C736   1.469       .  S
C419        C420   1.414       .  A
C420        H423   1.083       .  S
C424        C425   1.413       .  A
C424        C429   1.447       .  A
C425        C426   1.403       .  A
C425        H430   1.083   1_545  S
C426        C955   1.477       .  S
C426        C427   1.377       .  A
C427        C428   1.395       .  A
C427        H431   1.085       .  S
C428        C429   1.432       .  A
C429        H432   1.082       .  S
C433        C434   1.403       .  A
C433        C438   1.431       .  A
C434        C435   1.421       .  A
C434        H439   1.079   1_565  S
C435        C958   1.508       .  S
C435        C436   1.388       .  A
C436        C437   1.386       .  A
C436        H440   1.081       .  S
C437        C496   1.480       .  S
C437        C438   1.419       .  A
C438        H441   1.083       .  S
C442        C443   1.422       .  A
C442        C447   1.388       .  A
C443        C444   1.425       .  A
C443        H448   1.082       .  S
C444        C445   1.400       .  A
C445        C446   1.394       .  A
C445        H449   1.081       .  S
C446        C944   1.483       .  S
C446        C447   1.397       .  A
C447        H450   1.084       .  S
C451        C564   1.493       .  S
C451        C452   1.391       .  A
C451        C456   1.430       .  A
C452        C453   1.367       .  A
C452        H457   1.089       .  S
C453        C941   1.456   1_655  S
C453        C454   1.389       .  A
C454        C455   1.403       .  A
C454        H458   1.084       .  S
C455        C495   1.491       .  S
C455        C456   1.439       .  A
C456        H459   1.083       .  S
C460        C461   1.454       .  A
C460        C465   1.408       .  A
C461        C462   1.449       .  A
C461        H466   1.082       .  S
C462        C497   1.513       .  S
C462        C463   1.383       .  A
C463        C464   1.382       .  A
C463        H467   1.087       .  S
C464        C930   1.472       .  S
C464        C465   1.393       .  A
C465        H468   1.084       .  S
C469        C717   1.487       .  S
C469        C470   1.418       .  A
C469        C474   1.392       .  A
C470        C471   1.432       .  A
C470        H475   1.083       .  S
C471        C472   1.402       .  A
C472        C473   1.400       .  A
C472        H476   1.084   1_556  S
C473        C927   1.467       .  S
C473        C474   1.379       .  A
C474        H477   1.086       .  S
Zn478       O482   1.988       .  S
Zn478       O483   2.049       .  S
Zn478       O487   2.080       .  S
Zn478       O494   2.112       .  S
Zn479       O482   2.005       .  S
Zn479       O484   2.035       .  S
Zn479       O486   2.075       .  S
Zn479       O490   2.089       .  S
Zn480       O482   1.944       .  S
Zn480       O485   2.116       .  S
Zn480       O488   2.066       .  S
Zn480       O491   2.071       .  S
Zn481       O482   1.984       .  S
Zn481       O489   2.017       .  S
Zn481       O492   2.069       .  S
Zn481       O493   2.043       .  S
O483        C495   1.284       .  A
O484        C496   1.269       .  A
O485        C497   1.289       .  A
O486        C495   1.280       .  A
O487        C497   1.273       .  A
O488        C496   1.283       .  A
O489        C498   1.270       .  A
O490        C499   1.280       .  A
O491        C498   1.287       .  A
O492        C499   1.281       .  A
O493        C500   1.277       .  A
O494        C500   1.288       .  A
C501        C502   1.414       .  A
C501        C506   1.395       .  A
C502        C503   1.426       .  A
C502        H507   1.078       .  S
C503        C504   1.413       .  A
C504        C505   1.399       .  A
C504        H508   1.083       .  S
C505        C913   1.477       .  S
C505        C506   1.389       .  A
C506        H509   1.086       .  S
C510        C511   1.430       .  A
C510        C515   1.395       .  A
C511        C512   1.433       .  A
C511        H516   1.082       .  S
C512        C537   1.512       .  S
C512        C513   1.399       .  A
C513        C514   1.406       .  A
C513        H517   1.079       .  S
C514        C916   1.507       .  S
C514        C515   1.399       .  A
C515        H518   1.081       .  S
Zn519       O523   1.978   1_556  S
Zn519       O524   1.944       .  S
Zn519       O528   2.063       .  S
Zn519       O535   1.988       .  S
Zn520       O523   1.972       .  S
Zn520       O525   2.149       .  S
Zn520       O527   2.168       .  S
Zn520       O531   2.220       .  S
Zn521       O523   2.016       .  S
Zn521       O526   2.044   1_554  S
Zn521       O529   2.021       .  S
Zn521       O532   2.134       .  S
Zn522       O523   1.961       .  S
Zn522       O530   2.005       .  S
Zn522       O533   1.961       .  S
Zn522       O534   2.067   1_554  S
O524        C536   1.262       .  A
O525        C537   1.299       .  A
O526        C538   1.284       .  A
O527        C536   1.291   1_554  A
O528        C538   1.271       .  A
O529        C537   1.272       .  A
O530        C539   1.278       .  A
O531        C540   1.301       .  A
O532        C539   1.280       .  A
O533        C540   1.265       .  A
O534        C541   1.275       .  A
O535        C541   1.273       .  A
C536        C769   1.502       .  S
C538        C583   1.494       .  S
C539        C619   1.511       .  S
Zn542       O546   2.047       .  S
Zn542       O547   2.103   1_655  S
Zn542       O551   2.024       .  S
Zn542       O558   2.124   1_545  S
Zn543       O546   1.976   1_455  S
Zn543       O548   1.974       .  S
Zn543       O550   2.068       .  S
Zn543       O554   2.067   1_545  S
Zn544       O546   1.983       .  S
Zn544       O549   2.114       .  S
Zn544       O552   2.133       .  S
Zn544       O555   2.169       .  S
Zn545       O546   1.962   1_565  S
Zn545       O553   1.975       .  S
Zn545       O556   2.078   1_655  S
Zn545       O557   1.954       .  S
O547        C559   1.282       .  A
O548        C560   1.268       .  A
O549        C561   1.290       .  A
O550        C559   1.281       .  A
O551        C561   1.273       .  A
O552        C560   1.291   1_655  A
O553        C562   1.264       .  A
O554        C563   1.278       .  A
O555        C562   1.292   1_545  A
O556        C563   1.277       .  A
O557        C564   1.271       .  A
O558        C564   1.282       .  A
C560        C605   1.497       .  S
C562        C689   1.509       .  S
C563        C576   1.495       .  S
C565        C566   1.382       .  A
C565        C570   1.439       .  A
C566        C567   1.375       .  A
C566        H571   1.085       .  S
C567        C902   1.452       .  S
C567        C568   1.380       .  A
C568        C569   1.399       .  A
C568        H572   1.083       .  S
C569        C570   1.439       .  A
C570        H573   1.076       .  S
C574        C800   1.505       .  S
C574        C575   1.447       .  A
C574        C579   1.385       .  A
C575        C576   1.442       .  A
C575        H580   1.082       .  S
C576        C577   1.384       .  A
C577        C578   1.376       .  A
C577        H581   1.088       .  S
C578        C899   1.439       .  S
C578        C579   1.385       .  A
C579        H582   1.085       .  S
C583        C584   1.383       .  A
C583        C588   1.438       .  A
C584        C585   1.373       .  A
C584        H589   1.087       .  S
C585        C885   1.451       .  S
C585        C586   1.388       .  A
C586        C587   1.393       .  A
C586        H590   1.084       .  S
C587        C588   1.444       .  A
C588        H591   1.082       .  S
C592        C593   1.392       .  A
C592        C597   1.437       .  A
C593        C594   1.373       .  A
C593        H598   1.079       .  S
C594        C888   1.463       .  S
C594        C595   1.376       .  A
C595        C596   1.408       .  A
C595        H599   1.084       .  S
C596        C656   1.503       .  S
C596        C597   1.436       .  A
C597        H600   1.081       .  S
C601        C602   1.378       .  A
C601        C606   1.414       .  A
C602        C603   1.376       .  A
C602        H607   1.089       .  S
C603        C871   1.468       .  S
C603        C604   1.402       .  A
C604        C605   1.414       .  A
C604        H608   1.083   1_455  S
C605        C606   1.438       .  A
C606        H609   1.083       .  S
C610        C611   1.410       .  A
C610        C615   1.428       .  A
C611        C612   1.400       .  A
C611        H616   1.083       .  S
C612        C874   1.505       .  S
C612        C613   1.397       .  A
C613        C614   1.401       .  A
C613        H617   1.081       .  S
C614        C658   1.487       .  S
C614        C615   1.421       .  A
C615        H618   1.081       .  S
C619        C620   1.438       .  A
C619        C624   1.389       .  A
C620        C621   1.450       .  A
C620        H625   1.082       .  S
C621        C622   1.408       .  A
C622        C623   1.396       .  A
C622        H626   1.084       .  S
C623        C857   1.467   1_554  S
C623        C624   1.373       .  A
C624        H627   1.087       .  S
C628        C741   1.473       .  S
C628        C629   1.389       .  A
C628        C633   1.412       .  A
C629        C630   1.400       .  A
C629        H634   1.082       .  S
C630        C860   1.482       .  S
C630        C631   1.391       .  A
C631        C632   1.403       .  A
C631        H635   1.080       .  S
C632        C654   1.479       .  S
C632        C633   1.416       .  A
C633        H636   1.082       .  S
Zn637       O641   1.858       .  S
Zn637       O642   1.992       .  S
Zn637       O646   1.963       .  S
Zn637       O653   2.037       .  S
Zn638       O641   1.970       .  S
Zn638       O643   2.079       .  S
Zn638       O645   2.026       .  S
Zn638       O649   2.038       .  S
Zn639       O641   2.001       .  S
Zn639       O644   2.104       .  S
Zn639       O647   2.104       .  S
Zn639       O650   2.123       .  S
Zn640       O641   1.977       .  S
Zn640       O648   2.012       .  S
Zn640       O651   2.053       .  S
Zn640       O652   2.127       .  S
O642        C654   1.275       .  A
O643        C655   1.278       .  A
O644        C656   1.274       .  A
O645        C654   1.271       .  A
O646        C656   1.273       .  A
O647        C655   1.294       .  A
O648        C657   1.279       .  A
O649        C658   1.283       .  A
O650        C657   1.286       .  A
O651        C658   1.276       .  A
O652        C659   1.272       .  A
O653        C659   1.279       .  A
C655        C682   1.520       .  S
C660        C661   1.395       .  A
C660        C665   1.426       .  A
C661        C662   1.381       .  A
C661        H666   1.084       .  S
C662        C843   1.451       .  S
C662        C663   1.380       .  A
C663        C664   1.389       .  A
C663        H667   1.087       .  S
C664        C798   1.471       .  S
C664        C665   1.423       .  A
C665        H668   1.082       .  S
C669        C713   1.501       .  S
C669        C670   1.393       .  A
C669        C674   1.437       .  A
C670        C671   1.382       .  A
C670        H675   1.085       .  S
C671        C846   1.449       .  S
C671        C672   1.384       .  A
C672        C673   1.387       .  A
C672        H676   1.087       .  S
C673        C740   1.491       .  S
C673        C674   1.437       .  A
C674        H677   1.078       .  S
C678        C679   1.398       .  A
C678        C683   1.442       .  A
C679        C680   1.380       .  A
C679        H684   1.085       .  S
C680        C832   1.487   1_545  S
C680        C681   1.402       .  A
C681        C682   1.398       .  A
C681        H685   1.081       .  S
C682        C683   1.441       .  A
C683        H686   1.081       .  S
C687        C714   1.495       .  S
C687        C688   1.422       .  A
C687        C692   1.390       .  A
C688        C689   1.438       .  A
C688        H693   1.083       .  S
C689        C690   1.410       .  A
C690        C691   1.410       .  A
C690        H694   1.084   1_565  S
C691        C829   1.472       .  S
C691        C692   1.381       .  A
C692        H695   1.087       .  S
Zn696       O700   1.964       .  S
Zn696       O701   2.044       .  S
Zn696       O705   2.035       .  S
Zn696       O712   2.014       .  S
Zn697       O700   1.895       .  S
Zn697       O702   2.027       .  S
Zn697       O704   2.066       .  S
Zn697       O708   2.011       .  S
Zn698       O700   1.988       .  S
Zn698       O703   2.119       .  S
Zn698       O706   2.072       .  S
Zn698       O709   2.071       .  S
Zn699       O700   2.019       .  S
Zn699       O707   2.093       .  S
Zn699       O710   2.043       .  S
Zn699       O711   2.088       .  S
O701        C713   1.267       .  A
O702        C714   1.281       .  A
O703        C715   1.287       .  A
O704        C713   1.284       .  A
O705        C715   1.282       .  A
O706        C714   1.274       .  A
O707        C716   1.286       .  A
O708        C717   1.280       .  A
O709        C716   1.284       .  A
O710        C717   1.272       .  A
O711        C718   1.279       .  A
O712        C718   1.278       .  A
Zn719       O723   1.875   1_554  S
Zn719       O724   2.043       .  S
Zn719       O728   2.054       .  S
Zn719       O735   2.038   1_554  S
Zn720       O723   1.944       .  S
Zn720       O725   2.070   1_656  S
Zn720       O727   2.005   1_556  S
Zn720       O731   2.040       .  S
Zn721       O723   2.003   1_454  S
Zn721       O726   1.994       .  S
Zn721       O729   2.033       .  S
Zn721       O732   2.012   1_554  S
Zn722       O723   1.959       .  S
Zn722       O730   2.026   1_655  S
Zn722       O733   2.092       .  S
Zn722       O734   1.995       .  S
O724        C736   1.282       .  A
O725        C737   1.288       .  A
O726        C738   1.262       .  A
O727        C736   1.264       .  A
O728        C738   1.285   1_655  A
O729        C737   1.273       .  A
O730        C739   1.277       .  A
O731        C740   1.277       .  A
O732        C739   1.275       .  A
O733        C740   1.284       .  A
O734        C741   1.263       .  A
O735        C741   1.280       .  A
C737        C764   1.498       .  S
C742        C743   1.444       .  A
C742        C747   1.409       .  A
C743        C744   1.447       .  A
C743        H748   1.082       .  S
C744        C745   1.399       .  A
C745        C746   1.395       .  A
C745        H749   1.078       .  S
C746        C815   1.514       .  S
C746        C747   1.394       .  A
C747        H750   1.078       .  S
C751        C797   1.504       .  S
C751        C752   1.413       .  A
C751        C756   1.435       .  A
C752        C753   1.413       .  A
C752        H757   1.083       .  S
C753        C818   1.484   1_565  S
C753        C754   1.391       .  A
C754        C755   1.382       .  A
C754        H758   1.087   1_565  S
C755        C756   1.407       .  A
C756        H759   1.083       .  S
C760        C761   1.404       .  A
C760        C765   1.426       .  A
C761        C762   1.399       .  A
C761        H766   1.083       .  S
C762        C801   1.497   1_554  S
C762        C763   1.391       .  A
C763        C764   1.403       .  A
C763        H767   1.083       .  S
C764        C765   1.436       .  A
C765        H768   1.083       .  S
C769        C770   1.412       .  A
C769        C774   1.433       .  A
C770        C771   1.411       .  A
C770        H775   1.083   1_556  S
C771        C804   1.470       .  S
C771        C772   1.386       .  A
C772        C773   1.381       .  A
C772        H776   1.088       .  S
C773        C796   1.475       .  S
C773        C774   1.412       .  A
C774        H777   1.083       .  S
Zn778       O782   1.932       .  S
Zn778       O783   2.175       .  S
Zn778       O787   2.173       .  S
Zn778       O794   2.157       .  S
Zn779       O782   1.996       .  S
Zn779       O784   2.095       .  S
Zn779       O786   2.037       .  S
Zn779       O790   2.080       .  S
Zn780       O782   1.966       .  S
Zn780       O785   1.934       .  S
Zn780       O788   2.009       .  S
Zn780       O791   2.059       .  S
Zn781       O782   1.944       .  S
Zn781       O789   1.965       .  S
Zn781       O792   2.039       .  S
Zn781       O793   1.985       .  S
O783        C795   1.303       .  A
O784        C796   1.285       .  A
O785        C797   1.263       .  A
O786        C795   1.274       .  A
O787        C797   1.294       .  A
O788        C796   1.268       .  A
O789        C798   1.271       .  A
O790        C799   1.279       .  A
O791        C798   1.271       .  A
O792        C799   1.277       .  A
O793        C800   1.259       .  A
O794        C800   1.297       .  A
C801        C802   1.409       .  A
C801        C806   1.408       .  A
C802        C803   1.399       .  A
C802        C807   1.449       .  S
C803        C804   1.412       .  A
C803        C810   1.448       .  S
C804        C805   1.417       .  A
C805        C806   1.414       .  A
C805        C808   1.448       .  S
C806        C809   1.444   1_556  S
C807        N814   1.157       .  T
C808        N813   1.157       .  T
C809        N811   1.156       .  T
C810        N812   1.156       .  T
C815        C816   1.411       .  A
C815        C820   1.403       .  A
C816        C817   1.416       .  A
C816        C821   1.447       .  S
C817        C818   1.422       .  A
C817        C824   1.448   1_545  S
C818        C819   1.422       .  A
C819        C820   1.401       .  A
C819        C822   1.450       .  S
C820        C823   1.445       .  S
C821        N828   1.157       .  T
C822        N827   1.157       .  T
C823        N825   1.156       .  T
C824        N826   1.157       .  T
C829        C830   1.422       .  A
C829        C834   1.419       .  A
C830        C831   1.403       .  A
C830        C835   1.452       .  S
C831        C832   1.404       .  A
C831        C838   1.448       .  S
C832        C833   1.396       .  A
C833        C834   1.414       .  A
C833        C836   1.438   1_565  S
C834        C837   1.445       .  S
C835        N842   1.157       .  T
C836        N841   1.156       .  T
C837        N839   1.157   1_565  T
C838        N840   1.157       .  T
C843        C844   1.417       .  A
C843        C848   1.402       .  A
C844        C845   1.396       .  A
C844        C849   1.451       .  S
C845        C846   1.398   1_455  A
C845        C852   1.452       .  S
C846        C847   1.417       .  A
C847        C848   1.391   1_655  A
C847        C850   1.453       .  S
C848        C851   1.454       .  S
C849        N856   1.157       .  T
C850        N855   1.157       .  T
C851        N853   1.157       .  T
C852        N854   1.157       .  T
C857        C858   1.419       .  A
C857        C862   1.417       .  A
C858        C859   1.409       .  A
C858        C863   1.450       .  S
C859        C860   1.406       .  A
C859        C866   1.445       .  S
C860        C861   1.404       .  A
C861        C862   1.399       .  A
C861        C864   1.449       .  S
C862        C865   1.452       .  S
C863        N870   1.157   1_556  T
C864        N869   1.157       .  T
C865        N867   1.157       .  T
C866        N868   1.157       .  T
C871        C872   1.418       .  A
C871        C876   1.420   1_455  A
C872        C873   1.401       .  A
C872        C877   1.451       .  S
C873        C874   1.408   1_455  A
C873        C880   1.448       .  S
C874        C875   1.410       .  A
C875        C876   1.413       .  A
C875        C878   1.441       .  S
C876        C879   1.450       .  S
C877        N884   1.157       .  T
C878        N883   1.156       .  T
C879        N881   1.157       .  T
C880        N882   1.157       .  T
C885        C886   1.399       .  A
C885        C890   1.409       .  A
C886        C887   1.391       .  A
C886        C891   1.455       .  S
C887        C888   1.423       .  A
C887        C894   1.454       .  S
C888        C889   1.412       .  A
C889        C890   1.398       .  A
C889        C892   1.453   1_556  S
C890        C893   1.454       .  S
C891        N898   1.156       .  T
C892        N897   1.157       .  T
C893        N895   1.157   1_556  T
C894        N896   1.157       .  T
C899        C900   1.411       .  A
C899        C904   1.399       .  A
C900        C901   1.387       .  A
C900        C905   1.456       .  S
C901        C902   1.409       .  A
C901        C908   1.454       .  S
C902        C903   1.421       .  A
C903        C904   1.391       .  A
C903        C906   1.455       .  S
C904        C907   1.454       .  S
C905        N912   1.157   1_565  T
C906        N911   1.157       .  T
C907        N909   1.157       .  T
C908        N910   1.157   1_565  T
C913        C914   1.417       .  A
C913        C918   1.414       .  A
C914        C915   1.392       .  A
C914        C919   1.450       .  S
C915        C916   1.400       .  A
C915        C922   1.448       .  S
C916        C917   1.418       .  A
C917        C918   1.420       .  A
C917        C920   1.443       .  S
C918        C921   1.445       .  S
C919        N926   1.157       .  T
C920        N925   1.156       .  T
C921        N923   1.156       .  T
C922        N924   1.157       .  T
C927        C928   1.409       .  A
C927        C932   1.412       .  A
C928        C929   1.406   1_556  A
C928        C933   1.451       .  S
C929        C930   1.417       .  A
C929        C936   1.452       .  S
C930        C931   1.418       .  A
C931        C932   1.391   1_554  A
C931        C934   1.456       .  S
C932        C935   1.456       .  S
C933        N940   1.157       .  T
C934        N939   1.158       .  T
C935        N937   1.157       .  T
C936        N938   1.158       .  T
C941        C942   1.412       .  A
C941        C946   1.410       .  A
C942        C943   1.395       .  A
C942        C947   1.454       .  S
C943        C944   1.409       .  A
C943        C950   1.447       .  S
C944        C945   1.411       .  A
C945        C946   1.405       .  A
C945        C948   1.447       .  S
C946        C949   1.450   1_455  S
C947        N954   1.157       .  T
C948        N953   1.157       .  T
C949        N951   1.157       .  T
C950        N952   1.156       .  T
C955        C956   1.432       .  A
C955        C960   1.412   1_545  A
C956        C957   1.406       .  A
C956        C961   1.449       .  S
C957        C958   1.391   1_545  A
C957        C964   1.446       .  S
C958        C959   1.416       .  A
C959        C960   1.411       .  A
C959        C962   1.447       .  S
C960        C963   1.448       .  S
C961        N968   1.157       .  T
C962        N967   1.157       .  T
C963        N965   1.157       .  T
C964        N966   1.157       .  T
C969        C970   1.418       .  A
C969        C974   1.384       .  A
C970        C971   1.407       .  A
C970        C975   1.443       .  S
C971        C972   1.409   1_455  A
C971        C978   1.449       .  S
C972        C973   1.443       .  A
C973        C974   1.407   1_655  A
C973        C976   1.445       .  S
C974        C977   1.449       .  S
C975        N982   1.156       .  T
C976        N981   1.156       .  T
C977        N979   1.156       .  T
C978        N980   1.157       .  T
C983        C984   1.397       .  A
C983        C988   1.418       .  A
C984        C985   1.396       .  A
C984        C989   1.451       .  S
C985        C986   1.420       .  A
C985        C992   1.449       .  S
C986        C987   1.404       .  A
C987        C988   1.399       .  A
C987        C990   1.452       .  S
C988        C991   1.451       .  S
C989        N996   1.157       .  T
C990        N995   1.157   1_455  T
C991        N993   1.156       .  T
C992        N994   1.157       .  T
C997        C998   1.418       .  A
C997       C1002   1.420   1_556  A
C998        C999   1.404   1_556  A
C998       C1003   1.453       .  S
C999       C1000   1.411       .  A
C999       C1006   1.444   1_554  S
C1000      C1001   1.409       .  A
C1001      C1002   1.411       .  A
C1001      C1004   1.444       .  S
C1002      C1005   1.450       .  S
C1003      N1010   1.157       .  T
C1004      N1009   1.156       .  T
C1005      N1007   1.157       .  T
C1006      N1008   1.156       .  T
C1011      C1012   1.412       .  A
C1011      C1016   1.400       .  A
C1012      C1013   1.399       .  A
C1012      C1017   1.453       .  S
C1013      C1014   1.411       .  A
C1013      C1020   1.453       .  S
C1014      C1015   1.422       .  A
C1015      C1016   1.392       .  A
C1015      C1018   1.454       .  S
C1016      C1019   1.454       .  S
C1017      N1024   1.157       .  T
C1018      N1023   1.157       .  T
C1019      N1021   1.157       .  T
C1020      N1022   1.158       .  T
C1025      C1026   1.416       .  A
C1025      C1030   1.396       .  A
C1026      C1027   1.408       .  A
C1026      C1031   1.446       .  S
C1027      C1028   1.409       .  A
C1027      C1034   1.449       .  S
C1028      C1029   1.432       .  A
C1029      C1030   1.404       .  A
C1029      C1032   1.452       .  S
C1030      C1033   1.449       .  S
C1031      N1038   1.157       .  T
C1032      N1037   1.157       .  T
C1033      N1035   1.157       .  T
C1034      N1036   1.157       .  T
C1039      C1040   1.406       .  A
C1039      C1044   1.381       .  A
C1040      C1041   1.409       .  A
C1040      C1045   1.447       .  S
C1041      C1042   1.427       .  A
C1041      C1048   1.448       .  S
C1042      C1043   1.455       .  A
C1043      C1044   1.410       .  A
C1043      C1046   1.445       .  S
C1044      C1047   1.446       .  S
C1045      N1052   1.157       .  T
C1046      N1051   1.158       .  T
C1047      N1049   1.157       .  T
C1048      N1050   1.158       .  T
C1053      C1054   1.407       .  A
C1053      C1058   1.428       .  A
C1054      C1055   1.407       .  A
C1054      C1059   1.450       .  S
C1055      C1056   1.417       .  A
C1055      C1062   1.440       .  S
C1056      C1057   1.397       .  A
C1057      C1058   1.406       .  A
C1057      C1060   1.446       .  S
C1058      C1061   1.451       .  S
C1059      N1066   1.157       .  T
C1060      N1065   1.157       .  T
C1061      N1063   1.157       .  T
C1062      N1064   1.155       .  T
C1067      C1068   1.405       .  A
C1067      C1072   1.418   1_565  A
C1068      C1069   1.396       .  A
C1068      C1073   1.448       .  S
C1069      C1070   1.411       .  A
C1069      C1076   1.452       .  S
C1070      C1071   1.402       .  A
C1071      C1072   1.402   1_565  A
C1071      C1074   1.450       .  S
C1072      C1075   1.447       .  S
C1073      N1080   1.157       .  T
C1074      N1079   1.157       .  T
C1075      N1077   1.156       .  T
C1076      N1078   1.157       .  T
C1081      C1082   1.403       .  A
C1081      C1086   1.416       .  A
C1082      C1083   1.410       .  A
C1082      C1087   1.448       .  S
C1083      C1084   1.435       .  A
C1083      C1090   1.451       .  S
C1084      C1085   1.411       .  A
C1085      C1086   1.410       .  A
C1085      C1088   1.446       .  S
C1086      C1089   1.442       .  S
C1087      N1094   1.158       .  T
C1088      N1093   1.156       .  T
C1089      N1091   1.157       .  T
C1090      N1092   1.158       .  T
C1095      C1096   1.433       .  A
C1095      C1100   1.409       .  A
C1096      C1097   1.406       .  A
C1096      C1101   1.448       .  S
C1097      C1098   1.393       .  A
C1097      C1104   1.446       .  S
C1098      C1099   1.416       .  A
C1099      C1100   1.412       .  A
C1099      C1102   1.442       .  S
C1100      C1103   1.444       .  S
C1101      N1108   1.157       .  T
C1102      N1107   1.156       .  T
C1103      N1105   1.156       .  T
C1104      N1106   1.157       .  T
C1109      C1110   1.399       .  A
C1109      C1114   1.416       .  A
C1110      C1111   1.410       .  A
C1110      C1115   1.446       .  S
C1111      C1112   1.433       .  A
C1111      C1118   1.447       .  S
C1112      C1113   1.412       .  A
C1113      C1114   1.411       .  A
C1113      C1116   1.444       .  S
C1114      C1117   1.441       .  S
C1115      N1122   1.157       .  T
C1116      N1121   1.156       .  T
C1117      N1119   1.158       .  T
C1118      N1120   1.156       .  T
C1123      C1124   1.401   1_556  A
C1123      C1128   1.411       .  A
C1124      C1125   1.407       .  A
C1124      C1129   1.447       .  S
C1125      C1126   1.433       .  A
C1125      C1132   1.449       .  S
C1126      C1127   1.418   1_554  A
C1127      C1128   1.419       .  A
C1127      C1130   1.446   1_655  S
C1128      C1131   1.435       .  S
C1129      N1136   1.157       .  T
C1130      N1135   1.157       .  T
C1131      N1133   1.155       .  T
C1132      N1134   1.157       .  T
