geometry optimzed in LAMMPS
_audit_creation_date              2020-11-30 
_audit_creation_method            'lammps2cif' 
_symmetry_space_group_name_H-M    'P1' 
_symmetry_Int_Tables_number       1 
_symmetry_cell_setting            triclinic 
loop_ 
_symmetry_equiv_pos_as_xyz 
  x,y,z 
_cell_length_a                    31.500140805792068 
_cell_length_b                    31.097563122640363 
_cell_length_c                    29.83226754466737 
_cell_angle_alpha                 91.8263210323197 
_cell_angle_beta                  90.84366836585487 
_cell_angle_gamma                 120.2611799416983 
loop_ 
_atom_site_label 
_atom_site_type_symbol 
_atom_site_fract_x 
_atom_site_fract_y 
_atom_site_fract_z 
_atom_site_charge 
Zr1        Zr  0.33236971  0.18364136  0.42306455     2.17510
O2          O  0.34928298  0.18195597  0.50340308    -0.51600
O3          O  0.29836653  0.10341233  0.46280974    -0.74810
O4          O  0.29267251  0.22462706  0.45658435    -0.81590
O5          O  0.45955019  0.21354609  0.40210314    -0.83340
O6          O  0.23510633  0.22370382  0.40926575    -0.78960
O7          O  0.41676217  0.23272270  0.45064704    -0.90600
O8          O  0.25394941  0.03802615  0.41459943    -0.76560
O9          O  0.25469095  0.13536455  0.38549386    -0.86050
O10         O  0.34315628  0.12367980  0.38225958    -0.85740
O11         O  0.31889142  0.23619545  0.37260797    -0.72500
O12         O  0.39833747  0.23213472  0.37376461    -0.84630
Zr13       Zr  0.32196973  0.17526745  0.24287068     2.26420
Zr14       Zr  0.24138540  0.18541589  0.33311975     2.06270
Zr15       Zr  0.40808730  0.17087788  0.33274785     2.10050
Zr16       Zr  0.26572524  0.07599942  0.34416776     1.78760
O17         O  0.49248476  0.19539456  0.31842872    -0.93440
O18         O  0.18976968  0.07117025  0.36897294    -0.41240
O19         O  0.33111965  0.11996228  0.29241744    -0.77880
O20         O  0.25573801  0.12523053  0.29162102    -0.96560
O21         O  0.30728789  0.23298398  0.28310878    -0.89870
O22         O  0.39852252  0.22514096  0.28149319    -0.92710
C23         C  0.27060284  0.05618666  0.45384426     1.01040
C24         C  0.45591704  0.23340353  0.43961962     1.13970
C25         C  0.26054470  0.23684715  0.44750664     1.04750
O26         O  0.15354958  0.14389240  0.34564676    -0.94860
O27         O  0.19359843  0.13578398  0.25999142    -0.90610
O28         O  0.24754752  0.15868852  0.20435268    -0.83750
C29         C  0.20381733  0.13704002  0.21727214     1.11390
O30         O  0.36949599  0.34257701  0.36392639    -0.96840
Zr31       Zr  0.38382060  0.28217743  0.32279950     1.88940
O32         O  0.36469662  0.24972108  0.19858153    -0.73490
O33         O  0.23956246  0.26233240  0.32109264    -0.52750
O34         O  0.42148064  0.36969354  0.30352974    -0.97430
O35         O  0.46488700  0.29939428  0.34957023    -0.54650
O36         O  0.39674165  0.31482425  0.24822979    -0.74000
C37         C  0.38819936  0.29660974  0.20804514     0.98340
O38         O  0.31006082  0.15178308  0.16233398    -0.62820
O39         O  0.41222585  0.09929062  0.35768307    -0.57630
O40         O  0.36594744  0.13827961  0.21218561    -0.94310
O41         O  0.42152466  0.13884678  0.26130594    -0.92740
O42         O  0.27638057  0.00437332  0.32999448    -0.93090
O43         O  0.19950711  0.00054860  0.30787651    -0.91880
C44         C  0.39908975  0.12814920  0.22269643     1.17180
H45         H  0.35094877  0.10422746  0.40171933     0.33130
H46         H  0.23040572  0.09654892  0.27495415     0.43980
H47         H  0.42551191  0.24096112  0.26145150     0.37500
H48         H  0.31907833  0.26329599  0.38881476     0.33980
H49         H  0.16262036  0.04546525  0.34960918     0.25770
H50         H  0.24651526  0.28062667  0.35048423     0.31710
H51         H  0.45725440  0.38301404  0.30126206     0.37620
H52         H  0.25497039  0.97875365  0.35088285     0.32080
H53         H  0.43169599  0.09366173  0.33494072     0.30960
H54         H  0.51293586  0.21791733  0.34384926     0.32640
H55         H  0.48819546  0.33225480  0.33861937     0.31600
H56         H  0.18571850  0.01252370  0.28493017     0.35600
H57         H  0.27766327  0.12127681  0.15640600     0.28340
H58         H  0.31846284  0.16574289  0.51974353     0.32570
H59         H  0.34057044  0.34096585  0.34870042     0.35420
H60         H  0.43415836  0.11204891  0.38490613     0.28030
H61         H  0.30842595  0.17811880  0.14588989     0.40900
H62         H  0.14996047  0.12993669  0.37562927     0.30960
H63         H  0.18331741  0.05674947  0.39891271     0.38570
H64         H  0.47291646  0.27680954  0.33237871     0.30420
H65         H  0.26861380  0.28373233  0.30348630     0.30490
H66         H  0.36765888  0.21595942  0.51700152     0.30750
C67         C  0.20537637  0.36600818  0.16497752     0.02010
C68         C  0.21140803  0.41547500  0.16300810     0.02010
C69         C  0.16535562  0.41916376  0.16248839     0.02010
C70         C  0.11700784  0.37421054  0.16709160     0.02010
C71         C  0.11360037  0.32683682  0.16858586     0.02010
C72         C  0.15662358  0.32416063  0.16196702     0.02010
C73         C  0.16519392  0.10975320  0.17995277     0.00290
C74         C  0.14565850  0.13157394  0.15220184     0.00290
C75         C  0.41058132  0.33221142  0.17103010     0.00290
C76         C  0.38308004  0.34879145  0.14799818     0.00290
C77         C  0.40781258  0.09848846  0.18790108     0.00290
C78         C  0.45043792  0.11963776  0.16479518     0.00290
C79         C  0.51011764  0.29178074  0.50499354     0.00290
C80         C  0.49576579  0.25062168  0.47511535     0.00290
C81         C  0.26406472  0.01944265  0.48825702     0.00290
C82         C  0.21979448  0.49224058  0.51068160     0.00290
C83         C  0.04224086  0.51439158  0.48435681     0.02010
C84         C  0.49548677  0.46968639  0.47860517     0.02010
C85         C  0.44942674  0.46939414  0.48005012     0.02010
C86         C  0.45091517  0.51640801  0.47903022     0.02010
C87         C  0.49837677  0.06270105  0.47961968     0.02010
C88         C  0.04356139  0.06131215  0.48668293     0.02010
C89         C  0.25958310  0.27272201  0.48377598     0.00290
C90         C  0.22901347  0.25350955  0.52026655     0.00290
Zr91       Zr  0.47190989  0.00562316  0.91135411     2.17510
O92         O  0.45820142  0.01458452  0.83203166    -0.51600
O93         O  0.00616673  0.96128959  0.86239158    -0.74810
O94         O  0.01354100  0.08974740  0.88236336    -0.81590
O95         O  0.35041904  0.39457841  0.93044672    -0.83340
O96         O  0.08009024  0.13716858  0.92921532    -0.78960
O97         O  0.38541536  0.46377062  0.89023352    -0.90600
O98         O  0.05226212  0.44212270  0.90730679    -0.76560
O99         O  0.04579064  0.02762301  0.95112524    -0.86050
O100        O  0.45724202  0.43257352  0.94881407    -0.85740
O101        O  0.99006638  0.07392991  0.96508470    -0.72500
O102        O  0.40686847  0.98747097  0.96322785    -0.84630
Zr103      Zr  0.99160666  0.00624339  0.08995243     2.26420
Zr104      Zr  0.06561163  0.09662643  0.00283261     2.06270
Zr105      Zr  0.39510052  0.41750465  0.00278533     2.10050
Zr106      Zr  0.03479878  0.45585222  0.98443591     1.78760
O107        O  0.31352808  0.40235799  0.02049624    -0.93440
O108        O  0.12423807  0.00072258  0.98230058    -0.41240
O109        O  0.47241126  0.43967237  0.03671372    -0.77880
O110        O  0.05556597  0.02350790  0.03801904    -0.96560
O111        O  0.00314631  0.07848038  0.05457630    -0.89870
O112        O  0.41339735  0.98336746  0.05658380    -0.92710
C113        C  0.03673715  0.44495054  0.86810936     1.01040
C114        C  0.35166602  0.41888523  0.89592407     1.13970
C115        C  0.05626526  0.12783428  0.89097217     1.04750
O116        O  0.15426358  0.15185974  0.99763503    -0.94860
O117        O  0.11213764  0.11435186  0.07559071    -0.90610
O118        O  0.06912134  0.06077330  0.12874815    -0.83750
C119        C  0.10725533  0.09956800  0.11623022     1.11390
O120        O  0.41243650  0.08791613  0.95019694    -0.96840
Zr121      Zr  0.42649959  0.05381031  0.01701901     1.88940
O122        O  0.46601352  0.05688000  0.13431190    -0.73490
O123        O  0.05728043  0.16834425  0.02234228    -0.52750
O124        O  0.40446143  0.11832106  0.01439218    -0.97430
O125        O  0.34100711  0.00398594  0.03842693    -0.54650
O126        O  0.44935521  0.10209341  0.08697905    -0.74000
C127        C  0.45584602  0.09118838  0.12641723     0.98340
O128        O  0.00186903  0.47512948  0.16047102    -0.62820
O129        O  0.36322605  0.32912722  0.99414628    -0.57630
O130        O  0.44628933  0.42569811  0.12276234    -0.94310
O131        O  0.38194983  0.37752741  0.07476342    -0.92740
O132        O  0.00966360  0.36819575  0.97432219    -0.93090
O133        O  0.06812212  0.42725268  0.04243016    -0.91880
C134        C  0.40563490  0.38591780  0.11257556     1.17180
H135        H  0.44644809  0.40438068  0.92786695     0.33130
H136        H  0.08496252  0.02931758  0.05394834     0.43980
H137        H  0.38901274  0.47348428  0.07923418     0.37500
H138        H  0.99374445  0.10351647  0.95222696     0.33980
H139        H  0.13154137  0.51102485  0.95112523     0.25770
H140        H  0.07051153  0.18972056  0.99637644     0.31710
H141        H  0.37339101  0.10541112  0.03046293     0.37620
H142        H  0.03972055  0.36799888  0.96537792     0.32080
H143        H  0.35916199  0.32388474  0.96124446     0.30960
H144        H  0.29092727  0.37747327  0.99731925     0.32640
H145        H  0.32287695  0.01808426  0.02353989     0.31600
H146        H  0.06952043  0.44658610  0.06999321     0.35600
H147        H  0.03330015  0.47535167  0.15787445     0.28340
H148        H  0.49034175  0.03157542  0.81749376     0.32570
H149        H  0.40635650  0.06332852  0.92539346     0.35420
H150        H  0.39104181  0.32444099  0.00255290     0.28030
H151        H  0.00796782  0.50141054  0.18352083     0.40900
H152        H  0.16909857  0.13156504  0.00589252     0.30960
H153        H  0.13570484  0.03254228  0.99958433     0.38570
H154        H  0.34152411  0.01322399  0.07058206     0.30420
H155        H  0.02175485  0.15707449  0.02078696     0.30490
H156        H  0.44481806  0.03733336  0.83048055     0.30750
Zr157      Zr  0.15121381  0.33702528  0.75731041     2.17510
O158        O  0.15351940  0.32281336  0.83760496    -0.51600
O159        O  0.10195527  0.26029406  0.79715859    -0.74810
O160        O  0.10686140  0.37585006  0.78775274    -0.81590
O161        O  0.27836650  0.36280703  0.75375867    -0.83340
O162        O  0.04395558  0.34626607  0.73639867    -0.78960
O163        O  0.23121871  0.38920774  0.78841064    -0.90600
O164        O  0.09042580  0.19572347  0.75194796    -0.76560
O165        O  0.08210249  0.27889715  0.71334874    -0.86050
O166        O  0.17827964  0.28651122  0.72104399    -0.85740
O167        O  0.13711494  0.38664898  0.70605201    -0.72500
O168        O  0.22003874  0.38790412  0.71126557    -0.84630
Zr169      Zr  0.15871203  0.33326285  0.57980418     2.26420
Zr170      Zr  0.06701632  0.32766395  0.66176315     2.06270
Zr171      Zr  0.24509830  0.33655076  0.67257973     2.10050
Zr172      Zr  0.10918296  0.22824502  0.67715380     1.78760
O173        O  0.32639922  0.40434584  0.65701772    -0.93440
O174        O  0.02251013  0.17638508  0.65421921    -0.41240
O175        O  0.17338956  0.28085185  0.62886612    -0.77880
O176        O  0.09174278  0.27471644  0.62398397    -0.96560
O177        O  0.13340137  0.38379150  0.61737260    -0.89870
O178        O  0.23150622  0.38882944  0.62313706    -0.92710
C179        C  0.08666333  0.21385864  0.78966622     1.01040
C180        C  0.26954229  0.38557979  0.78687269     1.13970
C181        C  0.06516906  0.36931613  0.77426060     1.04750
O182        O  0.98111241  0.26246418  0.65303922    -0.94860
O183        O  0.02957612  0.29257683  0.58417780    -0.90610
O184        O  0.09011584  0.32190978  0.53475335    -0.83750
C185        C  0.04504586  0.30140569  0.54370724     1.11390
O186        O  0.22359923  0.49004082  0.73104402    -0.96840
Zr187      Zr  0.20501032  0.43871171  0.66209810     1.88940
O188        O  0.19588397  0.41033209  0.53695831    -0.73490
O189        O  0.05972601  0.40365143  0.66714828    -0.52750
O190        O  0.16222109  0.48394581  0.65135327    -0.97430
O191        O  0.28611595  0.51144204  0.67802676    -0.54650
O192        O  0.21752907  0.47375325  0.58796130    -0.74000
C193        C  0.21242718  0.45674902  0.54726331     0.98340
O194        O  0.14262473  0.28596594  0.50823517    -0.62820
O195        O  0.29455461  0.29667858  0.67761632    -0.57630
O196        O  0.21110071  0.31327335  0.54253639    -0.94310
O197        O  0.24121955  0.28835796  0.59911724    -0.92740
O198        O  0.16336265  0.20745454  0.63584328    -0.93090
O199        O  0.09316850  0.14487238  0.69481019    -0.91880
C200        C  0.22960790  0.28833227  0.55666387     1.17180
H201        H  0.18697788  0.27031811  0.74319360     0.33130
H202        H  0.06683641  0.24950133  0.60386278     0.43980
H203        H  0.25883688  0.40743516  0.60419066     0.37500
H204        H  0.13263151  0.41185354  0.72086059     0.33980
H205        H  0.01471350  0.14136409  0.65184073     0.25770
H206        H  0.02473645  0.39311505  0.67016463     0.31710
H207        H  0.18913445  0.51809332  0.64591129     0.37620
H208        H  0.16660526  0.18157077  0.65126164     0.32080
H209        H  0.30834749  0.30338424  0.70863547     0.30960
H210        H  0.34929403  0.39880723  0.67566888     0.32640
H211        H  0.28839980  0.53754375  0.65840223     0.31600
H212        H  0.05747469  0.12289574  0.69879557     0.35600
H213        H  0.10854243  0.25762615  0.50879970     0.28340
H214        H  0.13218247  0.33340530  0.85246919     0.32570
H215        H  0.22477870  0.52099901  0.72222461     0.35420
H216        H  0.27081069  0.26045846  0.67510212     0.28030
H217        H  0.14250786  0.30713284  0.48414165     0.40900
H218        H  0.98182358  0.23125691  0.64870120     0.30960
H219        H  0.00511572  0.17768036  0.68109315     0.38570
H220        H  0.31027950  0.50267466  0.66712002     0.30420
H221        H  0.07583774  0.42396470  0.69494089     0.30490
H222        H  0.18687140  0.34479849  0.85099970     0.30750
C223        C  0.30563606  0.41521410  0.82458992     0.00290
C224        C  0.31618529  0.39136403  0.85790978     0.00290
C225        C  0.26811519  0.15500582  0.82136818     0.02010
C226        C  0.31325438  0.20037936  0.83247638     0.02010
C227        C  0.35835011  0.19978048  0.83170226     0.02010
C228        C  0.35896102  0.15431584  0.82859866     0.02010
C229        C  0.31262790  0.10775324  0.82494577     0.02010
C230        C  0.26589599  0.10679472  0.81735764     0.02010
C231        C  0.06095223  0.17912358  0.82629361     0.00290
C232        C  0.08275947  0.15737000  0.85183944     0.00290
C233        C  0.06001570  0.43217705  0.82816252     0.00290
C234        C  0.03787003  0.38543943  0.80538220     0.00290
C235        C  0.44013853  0.17297249  0.86773639    -0.06050
C236        C  0.40932237  0.15665620  0.82836586    -0.00130
C237        C  0.43124560  0.15181156  0.78850720    -0.08700
C238        C  0.47728111  0.15356571  0.79136195    -0.06070
C239        C  0.50781410  0.16882626  0.83090688    -0.00140
C240        C  0.48974873  0.18296228  0.86879489    -0.08610
C241        C  0.52235819  0.21484841  0.90855122     0.61770
H242        H  0.42678966  0.18221074  0.89748114     0.12470
H243        H  0.49176366  0.14728899  0.76071170     0.12480
C244        C  0.41336099  0.15500364  0.74178944     0.62010
F245        F  0.52677016  0.26126578  0.90767450    -0.23160
F246        F  0.56943156  0.22258962  0.90844785    -0.20490
F247        F  0.50110556  0.19312544  0.94803488    -0.20170
F248        F  0.44552794  0.20152149  0.72655076    -0.20220
F249        F  0.36668656  0.14863511  0.74028946    -0.20540
F250        F  0.41372612  0.12002595  0.71250870    -0.23210
C251        C  0.16795677  0.19223016  0.81420575    -0.06050
C252        C  0.13116184  0.15667301  0.84129456    -0.00130
C253        C  0.14338660  0.12087174  0.85845672    -0.08700
C254        C  0.19038152  0.12817948  0.85516614    -0.06070
C255        C  0.22172951  0.15714046  0.82371900    -0.00140
C256        C  0.20937349  0.18884072  0.80081022    -0.08610
C257        C  0.23563704  0.21680268  0.76046745     0.61770
H258        H  0.16582050  0.22327348  0.80286261     0.12470
H259        H  0.20244868  0.10840314  0.87650013     0.12480
C260        C  0.11292145  0.07607604  0.88441674     0.62010
F261        F  0.20227586  0.20093837  0.72475104    -0.23160
F262        F  0.27364986  0.20940606  0.74816714    -0.20490
F263        F  0.25364311  0.26678296  0.76922957    -0.20170
F264        F  0.06485131  0.05266256  0.87000940    -0.20220
F265        F  0.12250409  0.09100993  0.92893264    -0.20540
F266        F  0.12646687  0.04079663  0.87908110    -0.23210
C267        C  0.12468068  0.00702583  0.78705235    -0.06050
C268        C  0.11372835  0.97067959  0.81902214    -0.00130
C269        C  0.15447158  0.97499061  0.84399469    -0.08700
C270        C  0.20206360  0.01655698  0.83896314    -0.06070
C271        C  0.21415519  0.05645080  0.81062904    -0.00140
C272        C  0.17343863  0.04811295  0.78122827    -0.08610
C273        C  0.17838441  0.07934048  0.74170934     0.61770
H274        H  0.09446456  0.00358555  0.76632726     0.12470
H275        H  0.22926796  0.01670721  0.85945229     0.12480
C276        C  0.15115391  0.43810232  0.87791368     0.62010
F277        F  0.15775784  0.04880855  0.70381536    -0.23160
F278        F  0.22678927  0.11304237  0.73336506    -0.20490
F279        F  0.15226161  0.10347144  0.74874693    -0.20170
F280        F  0.18390147  0.42266334  0.86672745    -0.20220
F281        F  0.10493017  0.39656098  0.87993016    -0.20540
F282        F  0.16496716  0.46140895  0.92007047    -0.23210
C283        C  0.41879180  0.26415338  0.78480472    -0.06050
C284        C  0.40560533  0.24753129  0.82820933    -0.00130
C285        C  0.43418651  0.27886510  0.86540277    -0.08700
C286        C  0.47718731  0.32421687  0.85730483    -0.06070
C287        C  0.48768719  0.34276600  0.81407855    -0.00140
C288        C  0.45437655  0.31352206  0.77787785    -0.08610
C289        C  0.45030310  0.33504362  0.73380505     0.61770
H290        H  0.39506341  0.24140487  0.75664891     0.12470
H291        H  0.50204812  0.34561908  0.88516005     0.12480
C292        C  0.41976827  0.26855188  0.91366229     0.62010
F293        F  0.40246713  0.32254251  0.72435149    -0.23160
F294        F  0.46268296  0.31503132  0.69869499    -0.20490
F295        F  0.47929824  0.38644221  0.73493108    -0.20170
F296        F  0.45540929  0.26575455  0.93856619    -0.20220
F297        F  0.37543596  0.22537242  0.91869505    -0.20540
F298        F  0.41623099  0.30797754  0.93086158    -0.23210
C299        C  0.32546286  0.04174212  0.78961363    -0.06050
C300        C  0.31523049  0.06092606  0.82816762    -0.00130
C301        C  0.31283040  0.03829226  0.86944589    -0.08700
C302        C  0.31014797  0.99095537  0.86831343    -0.06070
C303        C  0.31795867  0.96996286  0.82846055    -0.00140
C304        C  0.33139421  0.99981262  0.79003677    -0.08610
C305        C  0.35232635  0.98858306  0.74889676     0.61770
H306        H  0.32977827  0.06050815  0.75874679     0.12470
H307        H  0.30104233  0.46990981  0.89836677     0.12480
C308        C  0.31038429  0.06293288  0.91388409     0.62010
F309        F  0.37733069  0.02977659  0.72355262    -0.23160
F310        F  0.31505472  0.95184405  0.72247199    -0.20490
F311        F  0.38549895  0.97428780  0.76047771    -0.20170
F312        F  0.27017420  0.06937992  0.91580788    -0.20220
F313        F  0.35119985  0.10969921  0.91969923    -0.20540
F314        F  0.30858800  0.03504130  0.94956545    -0.23210
C315        C  0.28460199  0.30209179  0.87894186    -0.06050
C316        C  0.31095636  0.34092964  0.84955833    -0.00130
C317        C  0.34243417  0.33560133  0.81987042    -0.08700
C318        C  0.33817120  0.28867809  0.81338187    -0.06070
C319        C  0.31361893  0.24959509  0.84267480    -0.00140
C320        C  0.28836136  0.25830748  0.87837372    -0.08610
C321        C  0.26523844  0.22390738  0.91689052     0.61770
H322        H  0.26383530  0.30767643  0.90482866     0.12470
H323        H  0.35284126  0.28226662  0.78373089     0.12480
C324        C  0.38395533  0.37921193  0.79722606     0.62160
F325        F  0.21532576  0.20646267  0.91623978    -0.23160
F326        F  0.27352878  0.18434019  0.91583807    -0.20490
F327        F  0.28417883  0.24961899  0.95738453    -0.20170
F328        F  0.39533880  0.42460276  0.81507803    -0.20220
F329        F  0.37324871  0.37771246  0.75209611    -0.20540
F330        F  0.42626195  0.37825121  0.80404605    -0.23210
C331        C  0.13606423  0.11923249  0.47943901    -0.06050
C332        C  0.09173121  0.10897134  0.49925596    -0.00130
C333        C  0.09613409  0.14320390  0.53418943    -0.08700
C334        C  0.13890295  0.19107818  0.53783836    -0.06070
C335        C  0.18267577  0.20122692  0.51704747    -0.00140
C336        C  0.18131891  0.15911776  0.49667510    -0.08610
C337        C  0.21905578  0.14618335  0.51126297     0.61770
H338        H  0.13667686  0.09293895  0.45537659     0.12470
H339        H  0.13852059  0.21905137  0.55979371     0.12480
C340        C  0.06142707  0.12972804  0.57224033     0.62010
F341        F  0.19923368  0.11009295  0.54216597    -0.23160
F342        F  0.25895451  0.18588456  0.53298992    -0.20490
F343        F  0.23305242  0.12868470  0.47483960    -0.20170
F344        F  0.01974251  0.08342622  0.56769640    -0.20220
F345        F  0.54871788  0.16582958  0.57741248    -0.20540
F346        F  0.08544364  0.12895022  0.61048221    -0.23210
C347        C  0.31409060  0.37106339  0.50791131    -0.06050
C348        C  0.30664907  0.32591624  0.48621589    -0.00130
C349        C  0.35110816  0.32959835  0.47423940    -0.08700
C350        C  0.38862857  0.37587447  0.45961988    -0.06070
C351        C  0.39964700  0.41997351  0.48411363    -0.00140
C352        C  0.36286350  0.41294118  0.51516657    -0.08610
C353        C  0.37737253  0.43205305  0.56335048     0.61770
H354        H  0.28565010  0.37375407  0.52435706     0.12470
H355        H  0.41463796  0.37563715  0.43755087     0.12480
C356        C  0.37016399  0.30760259  0.50763812     0.62010
F357        F  0.37048760  0.39303941  0.58900367    -0.23160
F358        F  0.34773028  0.44925863  0.57923680    -0.20490
F359        F  0.42616790  0.46894033  0.56908200    -0.20170
F360        F  0.40044361  0.29491608  0.48617313    -0.20220
F361        F  0.33413004  0.26727750  0.52852731    -0.20540
F362        F  0.39551046  0.34210925  0.54178814    -0.23210
C363        C  0.38674914  0.52627010  0.52095067    -0.06050
C364        C  0.40218606  0.51631393  0.47995231    -0.00130
C365        C  0.36848909  0.00133562  0.44268068    -0.08700
C366        C  0.32197066  0.99789318  0.44831189    -0.06070
C367        C  0.30808643  0.01117778  0.48930701    -0.00140
C368        C  0.34281651  0.52748166  0.52566701    -0.08610
C369        C  0.33249003  0.54111944  0.57138046     0.61770
H370        H  0.40921241  0.53226733  0.55069397     0.12470
H371        H  0.29625071  0.98561040  0.41996961     0.12480
C372        C  0.38112065  0.98830120  0.39723078     0.62010
F373        F  0.37504604  0.56911159  0.59760145    -0.23160
F374        F  0.30434883  0.49738525  0.59173049    -0.20490
F375        F  0.30819959  0.56771468  0.56905259    -0.20170
F376        F  0.37674577  0.94190902  0.39749075    -0.20220
F377        F  0.42880326  0.02302996  0.38717551    -0.20540
F378        F  0.35011585  0.98727060  0.36339374    -0.23210
C379        C  0.15479447  0.01133977  0.53874775    -0.06050
C380        C  0.17481737  0.49833090  0.50224234    -0.00130
C381        C  0.14636140  0.48381746  0.46139922    -0.08700
C382        C  0.10793435  0.49506938  0.45600769    -0.06070
C383        C  0.08871704  0.50983731  0.49223653    -0.00140
C384        C  0.11120671  0.01435640  0.53523554    -0.08610
C385        C  0.09071390  0.02086823  0.57897248     0.61770
H386        H  0.17341515  0.01933996  0.57111180     0.12470
H387        H  0.09142454  0.49019368  0.42307386     0.12480
C388        C  0.14892994  0.44884680  0.42603549     0.62010
F389        F  0.08348178  0.98313443  0.60662246    -0.23160
F390        F  0.04620808  0.01866593  0.57350246    -0.20490
F391        F  0.12390031  0.06608657  0.60009993    -0.20170
F392        F  0.10764305  0.40238337  0.42843320    -0.20220
F393        F  0.18906419  0.44267157  0.43158478    -0.20540
F394        F  0.14962681  0.46556515  0.38368978    -0.23210
C395        C  0.47862411  0.12677835  0.51091593    -0.06050
C396        C  0.50109921  0.11337114  0.47744077    -0.00130
C397        C  0.02849134  0.15048987  0.44610439    -0.08700
C398        C  0.03176191  0.19788100  0.45060675    -0.06070
C399        C  0.50600508  0.20898771  0.48319939    -0.00140
C400        C  0.47770910  0.17131938  0.51304743    -0.08610
C401        C  0.44201413  0.17253055  0.54585844     0.61770
H402        H  0.46354069  0.10366927  0.53852459     0.12470
H403        H  0.05179857  0.22542134  0.42608831     0.12480
C404        C  0.05401351  0.14250169  0.40670109     0.62010
F405        F  0.45270468  0.16341122  0.58832329    -0.23160
F406        F  0.39533626  0.13561083  0.53244042    -0.20490
F407        F  0.44175164  0.21633849  0.54848888    -0.20170
F408        F  0.04483873  0.09426283  0.40145395    -0.20220
F409        F  0.10415334  0.17452919  0.41239943    -0.20540
F410        F  0.03809103  0.15325433  0.36751510    -0.23210
C411        C  0.50613624  0.35360412  0.45357734    -0.06050
C412        C  0.50029078  0.33453863  0.49681343    -0.00130
C413        C  0.99010036  0.36072410  0.53183790    -0.08700
C414        C  0.99099818  0.40492553  0.52359250    -0.06070
C415        C  0.49620260  0.42262642  0.48146219    -0.00140
C416        C  0.50445218  0.39748859  0.44546120    -0.08610
C417        C  0.50527274  0.41220769  0.39773345     0.61770
H418        H  0.51345544  0.33502133  0.42609136     0.12470
H419        H  0.98651638  0.42632493  0.55057549     0.12480
C420        C  0.98225424  0.34708877  0.57963449     0.62010
F421        F  0.46165029  0.37709841  0.37814061    -0.23160
F422        F  0.54352137  0.41252763  0.37537601    -0.20490
F423        F  0.50863362  0.45794550  0.39338307    -0.20170
F424        F  0.02847961  0.36543245  0.59710058    -0.20220
F425        F  0.95237586  0.29644536  0.58303493    -0.20540
F426        F  0.96102292  0.36955701  0.60419604    -0.23210
C427        C  0.15727156  0.25629327  0.19578800    -0.06050
C428        C  0.15096457  0.27465488  0.15699059    -0.00130
C429        C  0.14725304  0.25022557  0.11583525    -0.08700
C430        C  0.15312917  0.20829417  0.11643844    -0.06070
C431        C  0.15373829  0.18482560  0.15682334    -0.00140
C432        C  0.15343113  0.21042190  0.19764581    -0.08610
C433        C  0.15929008  0.19838836  0.24412130     0.61770
H434        H  0.16661628  0.27958072  0.22547726     0.12470
H435        H  0.15844043  0.19530063  0.08455340     0.12480
C436        C  0.13799944  0.26848168  0.07190302     0.62010
F437        F  0.15036008  0.22394841  0.27753123    -0.23160
F438        F  0.20873063  0.21558357  0.24934567    -0.20490
F439        F  0.12661802  0.14877231  0.25017225    -0.20170
F440        F  0.16318197  0.31986262  0.07066582    -0.20220
F441        F  0.08859631  0.25247360  0.06718154    -0.20540
F442        F  0.15194259  0.25029936  0.03554181    -0.23210
C443        C  0.14362708  0.48029093  0.19894960    -0.06050
C444        C  0.16466775  0.46867753  0.16228321    -0.00130
C445        C  0.17856120  0.50153723  0.12602924    -0.08700
C446        C  0.17697471  0.04681714  0.13126018    -0.06070
C447        C  0.15650197  0.05754089  0.16912489    -0.00140
C448        C  0.13494224  0.52063520  0.20082046    -0.08610
C449        C  0.10098257  0.52199530  0.23599641     0.61770
H450        H  0.13405979  0.45749970  0.22711080     0.12470
H451        H  0.19217284  0.07435703  0.10594523     0.12480
C452        C  0.19310052  0.48834154  0.08158841     0.62010
F453        F  0.05766490  0.47708729  0.23506055    -0.23160
F454        F  0.08803068  0.55741455  0.22849245    -0.20490
F455        F  0.12260313  0.53118390  0.27819013    -0.20170
F456        F  0.15774455  0.44077881  0.06667418    -0.20220
F457        F  0.23751373  0.49007858  0.08576130    -0.20540
F458        F  0.19759867  0.02101090  0.04914789    -0.23210
C459        C  0.01978719  0.19478396  0.20655771    -0.06050
C460        C  0.98680389  0.17502259  0.16950482    -0.00130
C461        C  0.98840628  0.20885010  0.13810314    -0.08700
C462        C  0.02984406  0.25752769  0.13840072    -0.06070
C463        C  0.06482801  0.27768360  0.17429824    -0.00140
C464        C  0.05605013  0.24616735  0.21124443    -0.08610
C465        C  0.07755946  0.26598093  0.25811523     0.61770
H466        H  0.01559958  0.16995300  0.23295486     0.12470
H467        H  0.03468084  0.27960962  0.10982371     0.12480
C468        C  0.44529799  0.19765433  0.10710155     0.62010
F469        F  0.04612831  0.27604177  0.28069585    -0.23160
F470        F  0.12297064  0.30872510  0.25911543    -0.20490
F471        F  0.08042991  0.23037738  0.28186421    -0.20170
F472        F  0.42903294  0.22965285  0.11969297    -0.20220
F473        F  0.40537854  0.15027627  0.10955230    -0.20540
F474        F  0.46018150  0.20512029  0.06330487    -0.23210
C475        C  0.31882007  0.04994004  0.16098167    -0.06050
C476        C  0.36223463  0.04976900  0.17205348    -0.00130
C477        C  0.35616320  0.50173176  0.17451567    -0.08700
C478        C  0.30997346  0.46049668  0.15880643    -0.06070
C479        C  0.26497943  0.46169833  0.16340243    -0.00140
C480        C  0.27423684  0.50986271  0.17472834    -0.08610
C481        C  0.26051117  0.51850796  0.22058756     0.61770
H482        H  0.32048123  0.08377872  0.15334281     0.12470
H483        H  0.31185490  0.42973914  0.14450190     0.12480
C484        C  0.39292694  0.49137996  0.19780697     0.62010
F485        F  0.30097208  0.03602869  0.24948773    -0.23160
F486        F  0.22399552  0.47498186  0.23746527    -0.20490
F487        F  0.24610775  0.55347770  0.21880015    -0.20170
F488        F  0.37153148  0.46238064  0.23383478    -0.20220
F489        F  0.43462815  0.53375418  0.21459504    -0.20540
F490        F  0.40630238  0.46588098  0.16839811    -0.23210
C491        C  0.04056350  0.36370047  0.12702952    -0.06050
C492        C  0.06822261  0.37448469  0.16763723    -0.00130
C493        C  0.04440408  0.37650624  0.20730166    -0.08700
C494        C  0.99666218  0.37007534  0.20410448    -0.06070
C495        C  0.96618345  0.35179999  0.16506471    -0.00140
C496        C  0.98934188  0.34800948  0.12530501    -0.08610
C497        C  0.96178244  0.32478772  0.08109906     0.61770
H498        H  0.05783800  0.36145945  0.09663227     0.12470
H499        H  0.48140227  0.37525794  0.23434480     0.12480
C500        C  0.06339384  0.37887415  0.25474346     0.62010
F501        F  0.98033352  0.29823663  0.05929580    -0.23160
F502        F  0.96733292  0.36141323  0.05374603    -0.20490
F503        F  0.91251982  0.29296652  0.08652742    -0.20170
F504        F  0.06999864  0.42018586  0.27931953    -0.20220
F505        F  0.10683483  0.37842022  0.25685793    -0.20540
F506        F  0.02774797  0.33843384  0.27514053    -0.23210
C507        C  0.25636031  0.33254401  0.12782775    -0.06050
C508        C  0.24804650  0.35409054  0.16674766    -0.00130
C509        C  0.27989365  0.36206567  0.20504283    -0.08700
C510        C  0.32193195  0.35584232  0.19964732    -0.06070
C511        C  0.33073933  0.33685307  0.15920831    -0.00140
C512        C  0.29307357  0.31927305  0.12525817    -0.08610
C513        C  0.28889455  0.28477446  0.08611808     0.61770
H514        H  0.23407685  0.32587335  0.09811615     0.12470
H515        H  0.34958583  0.36813266  0.22647722     0.12480
C516        C  0.27198396  0.37982756  0.25068837     0.62010
F517        F  0.24714860  0.23916020  0.08977585    -0.23160
F518        F  0.32749673  0.27606669  0.08503709    -0.20490
F519        F  0.28557386  0.30409867  0.04606654    -0.20170
F520        F  0.22645540  0.34653056  0.26599484    -0.20220
F521        F  0.27508652  0.42545919  0.24813152    -0.20540
F522        F  0.30662367  0.38454975  0.28259513    -0.23210
Zr523      Zr  0.33237460  0.68364744  0.42306799     2.17510
O524        O  0.34929244  0.68196234  0.50340467    -0.51600
O525        O  0.29837276  0.60342027  0.46281610    -0.74810
O526        O  0.29268558  0.72463582  0.45659449    -0.81590
O527        O  0.45955711  0.71355393  0.40209638    -0.83340
O528        O  0.23511048  0.72370646  0.40928415    -0.78960
O529        O  0.41676934  0.73272408  0.45064525    -0.90600
O530        O  0.25394863  0.53803371  0.41460783    -0.76560
O531        O  0.25469248  0.63536621  0.38550421    -0.86050
O532        O  0.34315964  0.62368736  0.38226126    -0.85740
O533        O  0.31888737  0.73619723  0.37261334    -0.72500
O534        O  0.39833805  0.73214508  0.37376599    -0.84630
Zr535      Zr  0.32195844  0.67527040  0.24287518     2.26420
Zr536      Zr  0.24137753  0.68541395  0.33313312     2.06270
Zr537      Zr  0.40808536  0.67088825  0.33274551     2.10050
Zr538      Zr  0.26572618  0.57600291  0.34417432     1.78760
O539        O  0.49248056  0.69539863  0.31842467    -0.93440
O540        O  0.18976457  0.57116254  0.36897599    -0.41240
O541        O  0.33111526  0.61996790  0.29241955    -0.77880
O542        O  0.25573133  0.62523115  0.29162990    -0.96560
O543        O  0.30727399  0.73298348  0.28311677    -0.89870
O544        O  0.39851293  0.72514684  0.28149156    -0.92710
C545        C  0.27060549  0.55619463  0.45385177     1.01040
C546        C  0.45592477  0.73340849  0.43961447     1.13970
C547        C  0.26055556  0.73685378  0.44752209     1.04750
O548        O  0.15354251  0.64387785  0.34566583    -0.94860
O549        O  0.19359081  0.63578089  0.26000395    -0.90610
O550        O  0.24753794  0.65870024  0.20436280    -0.83750
C551        C  0.20380866  0.63704067  0.21728388     1.11390
O552        O  0.36948669  0.84258200  0.36392368    -0.96840
Zr553      Zr  0.38381001  0.78218012  0.32280028     1.88940
O554        O  0.36468354  0.74972168  0.19858155    -0.73490
O555        O  0.23953305  0.76231975  0.32110980    -0.52750
O556        O  0.42143362  0.86969289  0.30352547    -0.97430
O557        O  0.46487605  0.79939302  0.34956495    -0.54650
O558        O  0.39675236  0.81482435  0.24823037    -0.74000
C559        C  0.38820062  0.79661033  0.20804577     0.98340
O560        O  0.31003903  0.65177877  0.16234015    -0.62820
O561        O  0.41221753  0.59929592  0.35767107    -0.57630
O562        O  0.36593542  0.63828064  0.21219182    -0.94310
O563        O  0.42153090  0.63886880  0.26130225    -0.92740
O564        O  0.27640415  0.50438986  0.33000959    -0.93090
O565        O  0.19951134  0.50054441  0.30788928    -0.91880
C566        C  0.39908579  0.62815985  0.22269744     1.17180
H567        H  0.35095417  0.60423658  0.40172114     0.33130
H568        H  0.23039898  0.59654734  0.27496509     0.43980
H569        H  0.42550064  0.74096724  0.26144816     0.37500
H570        H  0.31907602  0.76329879  0.38881998     0.33980
H571        H  0.16261649  0.54545258  0.34961463     0.25770
H572        H  0.24648155  0.78061267  0.35050164     0.31710
H573        H  0.45720870  0.88302871  0.30124422     0.37620
H574        H  0.25498617  0.47876377  0.35088955     0.32080
H575        H  0.43167934  0.59366321  0.33492223     0.30960
H576        H  0.51293499  0.71791959  0.34384472     0.32640
H577        H  0.48818087  0.83225147  0.33860954     0.31600
H578        H  0.18571129  0.51251323  0.28494753     0.35600
H579        H  0.27764040  0.62127263  0.15641677     0.28340
H580        H  0.31847360  0.66576413  0.51974767     0.32570
H581        H  0.34053984  0.84094547  0.34871720     0.35420
H582        H  0.43415814  0.61205522  0.38488891     0.28030
H583        H  0.30840349  0.67811337  0.14589472     0.40900
H584        H  0.14995903  0.62992727  0.37565011     0.30960
H585        H  0.18331524  0.55674614  0.39891761     0.38570
H586        H  0.47290463  0.77680827  0.33237217     0.30420
H587        H  0.26858344  0.78372450  0.30350433     0.30490
H588        H  0.36768437  0.71596644  0.51700013     0.30750
C589        C  0.20537818  0.86600503  0.16497937     0.02010
C590        C  0.21141112  0.91547253  0.16300686     0.02010
C591        C  0.16535865  0.91916246  0.16248586     0.02010
C592        C  0.11701050  0.87420963  0.16709318     0.02010
C593        C  0.11360313  0.82683568  0.16859266     0.02010
C594        C  0.15662544  0.82415822  0.16197278     0.02010
C595        C  0.16518631  0.60974987  0.17996464     0.00290
C596        C  0.14565485  0.63156993  0.15220888     0.00290
C597        C  0.41058390  0.83221259  0.17103168     0.00290
C598        C  0.38308207  0.84879168  0.14799973     0.00290
C599        C  0.40780549  0.59849559  0.18790347     0.00290
C600        C  0.45043537  0.61963580  0.16480468     0.00290
C601        C  0.51013213  0.79179274  0.50498121     0.00290
C602        C  0.49577496  0.75062776  0.47510872     0.00290
C603        C  0.26406827  0.51944989  0.48826340     0.00290
C604        C  0.21979130  0.99223663  0.51067507     0.00290
C605        C  0.04224479  0.01439678  0.48432733     0.02010
C606        C  0.49549206  0.96969172  0.47856932     0.02010
C607        C  0.44943245  0.96939706  0.48002993     0.02010
C608        C  0.45091494  0.01640722  0.47901322     0.02010
C609        C  0.49837805  0.56270027  0.47963789     0.02010
C610        C  0.04356089  0.56130868  0.48670315     0.02010
C611        C  0.25959701  0.77272679  0.48379618     0.00290
C612        C  0.22901461  0.75351102  0.52027688     0.00290
Zr613      Zr  0.47191803  0.50562202  0.91135330     2.17510
O614        O  0.45822010  0.51458577  0.83203097    -0.51600
O615        O  0.00616867  0.46128687  0.86238822    -0.74810
O616        O  0.01354538  0.58974786  0.88236579    -0.81590
O617        O  0.35041253  0.89458154  0.93044673    -0.83340
O618        O  0.08009711  0.63716810  0.92921558    -0.78960
O619        O  0.38540849  0.96377440  0.89023524    -0.90600
O620        O  0.05225334  0.94211753  0.90731141    -0.76560
O621        O  0.04579766  0.52762292  0.95112567    -0.86050
O622        O  0.45723162  0.93257304  0.94881435    -0.85740
O623        O  0.99007848  0.57393178  0.96508216    -0.72500
O624        O  0.40687466  0.48746410  0.96322376    -0.84630
Zr625      Zr  0.99161322  0.50624399  0.08994994     2.26420
Zr626      Zr  0.06562001  0.59662674  0.00283300     2.06270
Zr627      Zr  0.39509068  0.91750508  0.00278629     2.10050
Zr628      Zr  0.03478823  0.95585081  0.98443805     1.78760
O629        O  0.31350493  0.90232442  0.02048957    -0.93440
O630        O  0.12424882  0.50073422  0.98229830    -0.41240
O631        O  0.47240076  0.93967119  0.03671449    -0.77880
O632        O  0.05557517  0.52350823  0.03801897    -0.96560
O633        O  0.00314732  0.57847610  0.05456874    -0.89870
O634        O  0.41340690  0.48337358  0.05657381    -0.92710
C635        C  0.03673235  0.94494933  0.86811356     1.01040
C636        C  0.35166043  0.91888844  0.89592416     1.13970
C637        C  0.05627032  0.62783413  0.89097337     1.04750
O638        O  0.15427395  0.65184973  0.99763875    -0.94860
O639        O  0.11213110  0.61435777  0.07559908    -0.90610
O640        O  0.06913145  0.56075554  0.12874563    -0.83750
C641        C  0.10725584  0.59956370  0.11623432     1.11390
O642        O  0.41238773  0.58780649  0.95012917    -0.96840
Zr643      Zr  0.42650583  0.55381236  0.01700213     1.88940
O644        O  0.46607809  0.55692836  0.13431342    -0.73490
O645        O  0.05729330  0.66834758  0.02234112    -0.52750
O646        O  0.40473142  0.61851024  0.01430622    -0.97430
O647        O  0.34098664  0.50407846  0.03836444    -0.54650
O648        O  0.44924077  0.60202775  0.08699200    -0.74000
C649        C  0.45583126  0.59118273  0.12642348     0.98340
O650        O  0.00188046  0.97513438  0.16046854    -0.62820
O651        O  0.36321516  0.82912756  0.99413966    -0.57630
O652        O  0.44629144  0.92569713  0.12276353    -0.94310
O653        O  0.38194691  0.87753144  0.07476727    -0.92740
O654        O  0.00965085  0.86819290  0.97433910    -0.93090
O655        O  0.06809891  0.92725010  0.04244276    -0.91880
C656        C  0.40563508  0.88591889  0.11257771     1.17180
H657        H  0.44643749  0.90438018  0.92786717     0.33130
H658        H  0.08497288  0.52932026  0.05394780     0.43980
H659        H  0.38901058  0.97347483  0.07925193     0.37500
H660        H  0.99375102  0.60351790  0.95222745     0.33980
H661        H  0.13153151  0.01102965  0.95113176     0.25770
H662        H  0.07051737  0.68971990  0.99637197     0.31710
H663        H  0.37364752  0.60568563  0.03034106     0.37620
H664        H  0.03970612  0.86799359  0.96539315     0.32080
H665        H  0.35916157  0.82388765  0.96123711     0.30960
H666        H  0.29091174  0.87743779  0.99730996     0.32640
H667        H  0.32297197  0.51841916  0.02368108     0.31600
H668        H  0.06948483  0.94657767  0.07000560     0.35600
H669        H  0.03331520  0.97536513  0.15786620     0.28340
H670        H  0.49036203  0.53157673  0.81749586     0.32570
H671        H  0.40633731  0.56321000  0.92534366     0.35420
H672        H  0.39102606  0.82443745  0.00255591     0.28030
H673        H  0.00797606  0.00141346  0.18351936     0.40900
H674        H  0.16910398  0.63155320  0.00590551     0.30960
H675        H  0.13571078  0.53256162  0.99956731     0.38570
H676        H  0.34153826  0.51309816  0.07058331     0.30420
H677        H  0.02176749  0.65707770  0.02079430     0.30490
H678        H  0.44483886  0.53733644  0.83047974     0.30750
Zr679      Zr  0.15121160  0.83703310  0.75730760     2.17510
O680        O  0.15351162  0.82282139  0.83760261    -0.51600
O681        O  0.10196693  0.76029809  0.79715975    -0.74810
O682        O  0.10686826  0.87586457  0.78775093    -0.81590
O683        O  0.27837808  0.86282539  0.75374946    -0.83340
O684        O  0.04394826  0.84624626  0.73641035    -0.78960
O685        O  0.23121850  0.88920645  0.78840962    -0.90600
O686        O  0.09041919  0.69572269  0.75194527    -0.76560
O687        O  0.08210062  0.77889696  0.71334981    -0.86050
O688        O  0.17827485  0.78653389  0.72102681    -0.85740
O689        O  0.13710489  0.88665495  0.70604842    -0.72500
O690        O  0.22003166  0.88790956  0.71125931    -0.84630
Zr691      Zr  0.15871091  0.83326535  0.57980518     2.26420
Zr692      Zr  0.06700756  0.82765781  0.66176392     2.06270
Zr693      Zr  0.24510044  0.83656248  0.67257779     2.10050
Zr694      Zr  0.10918601  0.72824959  0.67715371     1.78760
O695        O  0.32640473  0.90435594  0.65702277    -0.93440
O696        O  0.02251206  0.67637050  0.65422871    -0.41240
O697        O  0.17339222  0.78085874  0.62886742    -0.77880
O698        O  0.09173876  0.77471495  0.62398292    -0.96560
O699        O  0.13339093  0.88378860  0.61737056    -0.89870
O700        O  0.23150729  0.88883820  0.62313387    -0.92710
C701        C  0.08666748  0.71386056  0.78966646     1.01040
C702        C  0.26954684  0.88558693  0.78686724     1.13970
C703        C  0.06516767  0.86931306  0.77426605     1.04750
O704        O  0.98110723  0.76245000  0.65304207    -0.94860
O705        O  0.02958290  0.79258287  0.58417018    -0.90610
O706        O  0.09012562  0.82192048  0.53474831    -0.83750
C707        C  0.04505554  0.80141369  0.54369930     1.11390
O708        O  0.22365337  0.99003498  0.73104753    -0.96840
Zr709      Zr  0.20499989  0.93871412  0.66209114     1.88940
O710        O  0.19587801  0.91033134  0.53695705    -0.73490
O711        O  0.05966837  0.90361345  0.66716145    -0.52750
O712        O  0.16210516  0.98384671  0.65137023    -0.97430
O713        O  0.28604995  0.01154764  0.67799509    -0.54650
O714        O  0.21753515  0.97375878  0.58795595    -0.74000
C715        C  0.21242621  0.95674955  0.54725918     0.98340
O716        O  0.14262305  0.78596473  0.50823785    -0.62820
O717        O  0.29455305  0.79668708  0.67761921    -0.57630
O718        O  0.21109486  0.81327118  0.54253570    -0.94310
O719        O  0.24121968  0.78836550  0.59912078    -0.92740
O720        O  0.16336307  0.70746569  0.63583088    -0.93090
O721        O  0.09323026  0.64490352  0.69483366    -0.91880
C722        C  0.22960235  0.78833182  0.55666821     1.17180
H723        H  0.18697112  0.77032415  0.74320523     0.33130
H724        H  0.06683191  0.74949832  0.60386256     0.43980
H725        H  0.25883803  0.90744045  0.60418604     0.37500
H726        H  0.13261390  0.91185884  0.72084981     0.33980
H727        H  0.01472121  0.64135079  0.65186893     0.25770
H728        H  0.02467010  0.89305549  0.67013996     0.31710
H729        H  0.18898618  0.01799882  0.64589405     0.37620
H730        H  0.16664070  0.68160866  0.65126081     0.32080
H731        H  0.30834596  0.80339490  0.70863847     0.30960
H732        H  0.34929348  0.89883807  0.67570467     0.32640
H733        H  0.28829558  0.03760016  0.65832596     0.31600
H734        H  0.05753329  0.62289666  0.69877646     0.35600
H735        H  0.10853968  0.75762674  0.50880135     0.28340
H736        H  0.13217484  0.83341442  0.85246513     0.32570
H737        H  0.22465208  0.02091656  0.72226104     0.35420
H738        H  0.27080774  0.76046719  0.67510749     0.28030
H739        H  0.14251009  0.80713121  0.48414206     0.40900
H740        H  0.98182513  0.73124618  0.64870727     0.30960
H741        H  0.00511877  0.67767789  0.68109895     0.38570
H742        H  0.31026725  0.00283117  0.66714105     0.30420
H743        H  0.07574277  0.92390816  0.69497158     0.30490
H744        H  0.18686336  0.84480548  0.85099849     0.30750
C745        C  0.30563703  0.91521826  0.82458650     0.00290
C746        C  0.31618312  0.89136688  0.85790808     0.00290
C747        C  0.26811863  0.65500453  0.82137719     0.02010
C748        C  0.31325636  0.70037805  0.83249012     0.02010
C749        C  0.35835178  0.69977784  0.83171889     0.02010
C750        C  0.35896291  0.65431308  0.82861275     0.02010
C751        C  0.31263011  0.60775078  0.82495953     0.02010
C752        C  0.26589954  0.60679322  0.81736633     0.02010
C753        C  0.06095714  0.67912544  0.82629579     0.00290
C754        C  0.08276321  0.65736884  0.85184006     0.00290
C755        C  0.06001245  0.93217527  0.82816770     0.00290
C756        C  0.03786854  0.88543554  0.80538989     0.00290
C757        C  0.44014015  0.67296454  0.86774663    -0.06050
C758        C  0.40932423  0.65665317  0.82837627    -0.00130
C759        C  0.43124780  0.65181350  0.78851541    -0.08700
C760        C  0.47728397  0.65356865  0.79136705    -0.06070
C761        C  0.50781819  0.66882725  0.83091093    -0.00140
C762        C  0.48975181  0.68295792  0.86880180    -0.08610
C763        C  0.52236167  0.71484362  0.90855767     0.61770
H764        H  0.42678965  0.68219670  0.89749392     0.12470
H765        H  0.49176575  0.64729423  0.76071533     0.12480
C766        C  0.41336264  0.65500903  0.74179900     0.62010
F767        F  0.52677209  0.76126035  0.90768215    -0.23160
F768        F  0.56943562  0.72258657  0.90845244    -0.20490
F769        F  0.50111010  0.69311912  0.94804119    -0.20170
F770        F  0.44552839  0.70152870  0.72656321    -0.20220
F771        F  0.36668721  0.64863808  0.74030087    -0.20540
F772        F  0.41372993  0.62003537  0.71251457    -0.23210
C773        C  0.16795870  0.69222299  0.81420974    -0.06050
C774        C  0.13116361  0.65666763  0.84129513    -0.00130
C775        C  0.14338767  0.62086652  0.85845718    -0.08700
C776        C  0.19038331  0.62817561  0.85516985    -0.06070
C777        C  0.22173288  0.65713804  0.82372437    -0.00140
C778        C  0.20937820  0.68883874  0.80081512    -0.08610
C779        C  0.23564590  0.71680474  0.76047506     0.61770
H780        H  0.16581642  0.72326407  0.80287713     0.12470
H781        H  0.20244995  0.60839946  0.87650494     0.12480
C782        C  0.11292332  0.57607185  0.88441754     0.62010
F783        F  0.20228758  0.70094487  0.72475668    -0.23160
F784        F  0.27365849  0.70940734  0.74817580    -0.20490
F785        F  0.25365460  0.76678516  0.76924004    -0.20170
F786        F  0.06485257  0.55265994  0.87001303    -0.20220
F787        F  0.12251006  0.59100696  0.92893317    -0.20540
F788        F  0.12646698  0.54079142  0.87907937    -0.23210
C789        C  0.12468714  0.50702642  0.78704880    -0.06050
C790        C  0.11373189  0.47067896  0.81901797    -0.00130
C791        C  0.15447256  0.47498693  0.84399178    -0.08700
C792        C  0.20206481  0.51655360  0.83896423    -0.06070
C793        C  0.21415955  0.55644940  0.81063189    -0.00140
C794        C  0.17344617  0.54811276  0.78122738    -0.08610
C795        C  0.17839538  0.57934223  0.74170935     0.61770
H796        H  0.09447261  0.50358784  0.76632235     0.12470
H797        H  0.22926628  0.51670206  0.85945535     0.12480
C798        C  0.15115593  0.93811015  0.87791977     0.62010
F799        F  0.15776965  0.54881166  0.70381446    -0.23160
F800        F  0.22680119  0.61304379  0.73336786    -0.20490
F801        F  0.15227335  0.60347407  0.74874614    -0.20170
F802        F  0.18390446  0.92267169  0.86673570    -0.20220
F803        F  0.10493307  0.89656818  0.87993904    -0.20540
F804        F  0.16497002  0.96142122  0.92007480    -0.23210
C805        C  0.41879124  0.76414662  0.78482066    -0.06050
C806        C  0.40560666  0.74752738  0.82822558    -0.00130
C807        C  0.43418969  0.77886177  0.86541777    -0.08700
C808        C  0.47719027  0.82421335  0.85731744    -0.06070
C809        C  0.48768727  0.84276049  0.81408990    -0.00140
C810        C  0.45437411  0.81351442  0.77789165    -0.08610
C811        C  0.45029837  0.83502984  0.73381687     0.61770
H812        H  0.39506120  0.74139709  0.75666608     0.12470
H813        H  0.50205271  0.84561667  0.88517137     0.12480
C814        C  0.41977347  0.76854787  0.91367779     0.62010
F815        F  0.40246293  0.82253052  0.72436414    -0.23160
F816        F  0.46267216  0.81500713  0.69871043    -0.20490
F817        F  0.47929579  0.88642806  0.73493673    -0.20170
F818        F  0.45541378  0.76574657  0.93857890    -0.20220
F819        F  0.37543974  0.72536990  0.91871086    -0.20540
F820        F  0.41623978  0.80797453  0.93088017    -0.23210
C821        C  0.32547504  0.54174668  0.78962832    -0.06050
C822        C  0.31523222  0.56092309  0.82818099    -0.00130
C823        C  0.31282335  0.53828215  0.86945740    -0.08700
C824        C  0.31013753  0.49094355  0.86832029    -0.06070
C825        C  0.31795731  0.46995835  0.82846763    -0.00140
C826        C  0.33140862  0.49981834  0.79005029    -0.08610
C827        C  0.35237952  0.48861078  0.74892610     0.61770
H828        H  0.32979730  0.56051907  0.75876452     0.12470
H829        H  0.30105965  0.96992780  0.89836337     0.12480
C830        C  0.31037046  0.56291525  0.91389802     0.62010
F831        F  0.37731366  0.52978522  0.72354619    -0.23160
F832        F  0.31514474  0.45180413  0.72252350    -0.20490
F833        F  0.38562614  0.47442199  0.76053544    -0.20170
F834        F  0.27016310  0.56936725  0.91581731    -0.20220
F835        F  0.35118849  0.60967967  0.91972351    -0.20540
F836        F  0.30856184  0.53501243  0.94957581    -0.23210
C837        C  0.28459664  0.80209284  0.87894291    -0.06050
C838        C  0.31095478  0.84093112  0.84956010    -0.00130
C839        C  0.34243844  0.83560249  0.81987982    -0.08700
C840        C  0.33817646  0.78867896  0.81339494    -0.06070
C841        C  0.31362014  0.74959525  0.84268625    -0.00140
C842        C  0.28835707  0.75830849  0.87837976    -0.08610
C843        C  0.26523038  0.72390969  0.91689646     0.61770
H844        H  0.26382602  0.80767728  0.90482580     0.12470
H845        H  0.35284797  0.78226677  0.78374598     0.12480
C846        C  0.38396275  0.87921201  0.79723768     0.62160
F847        F  0.21531717  0.70646251  0.91623955    -0.23160
F848        F  0.27352335  0.68434419  0.91584940    -0.20490
F849        F  0.28416525  0.74962355  0.95739054    -0.20170
F850        F  0.39534483  0.92460414  0.81508626    -0.20220
F851        F  0.37326033  0.87770929  0.75210652    -0.20540
F852        F  0.42626857  0.87825082  0.80406310    -0.23210
C853        C  0.13606510  0.61922861  0.47945408    -0.06050
C854        C  0.09173220  0.60896820  0.49927155    -0.00130
C855        C  0.09613576  0.64320309  0.53420222    -0.08700
C856        C  0.13890189  0.69107962  0.53784397    -0.06070
C857        C  0.18267558  0.70122864  0.51705360    -0.00140
C858        C  0.18132020  0.65911814  0.49668604    -0.08610
C859        C  0.21906248  0.64619067  0.51127304     0.61770
H860        H  0.13667782  0.59293288  0.45539454     0.12470
H861        H  0.13851703  0.71905467  0.55979448     0.12480
C862        C  0.06143184  0.62972757  0.57225630     0.62010
F863        F  0.19924570  0.61010157  0.54217778    -0.23160
F864        F  0.25896056  0.68589597  0.53299757    -0.20490
F865        F  0.23305965  0.62869305  0.47484941    -0.20170
F866        F  0.01974711  0.58342528  0.56771457    -0.20220
F867        F  0.54872221  0.66582840  0.57742829    -0.20540
F868        F  0.08545069  0.62895141  0.61049780    -0.23210
C869        C  0.31413158  0.87106036  0.50798384    -0.06050
C870        C  0.30666784  0.82592158  0.48624667    -0.00130
C871        C  0.35111919  0.82960242  0.47424504    -0.08700
C872        C  0.38862938  0.87587868  0.45961591    -0.06070
C873        C  0.39966070  0.91997742  0.48411710    -0.00140
C874        C  0.36290757  0.91294279  0.51520685    -0.08610
C875        C  0.37745787  0.93208992  0.56337989     0.61770
H876        H  0.28571331  0.87374315  0.52448162     0.12470
H877        H  0.41462848  0.87564404  0.43752994     0.12480
C878        C  0.37019066  0.80761196  0.50763686     0.62010
F879        F  0.37061085  0.89310103  0.58905058    -0.23160
F880        F  0.34782041  0.94929490  0.57928185    -0.20490
F881        F  0.42625286  0.96898983  0.56907108    -0.20170
F882        F  0.40046656  0.79492906  0.48616018    -0.20220
F883        F  0.33416335  0.76728364  0.52852903    -0.20540
F884        F  0.39554558  0.84211686  0.54178781    -0.23210
C885        C  0.38674242  0.02625349  0.52094098    -0.06050
C886        C  0.40218113  0.01630533  0.47993991    -0.00130
C887        C  0.36849777  0.50134637  0.44269078    -0.08700
C888        C  0.32197920  0.49790514  0.44831870    -0.06070
C889        C  0.30809356  0.51119085  0.48931270    -0.00140
C890        C  0.34280655  0.02745787  0.52566328    -0.08610
C891        C  0.33248088  0.04108640  0.57138206     0.61770
H892        H  0.40920981  0.03225493  0.55068175     0.12470
H893        H  0.29626093  0.48562354  0.41997540     0.12480
C894        C  0.38114208  0.48832581  0.39724071     0.62010
F895        F  0.37504041  0.06909073  0.59759552    -0.23160
F896        F  0.30435548  0.99734968  0.59173784    -0.20490
F897        F  0.30817721  0.06766905  0.56906230    -0.20170
F898        F  0.37682392  0.44195877  0.39750420    -0.20220
F899        F  0.42881028  0.52309069  0.38718049    -0.20540
F900        F  0.35011279  0.48724998  0.36340511    -0.23210
C901        C  0.15480374  0.51134836  0.53876162    -0.06050
C902        C  0.17481334  0.99832482  0.50223123    -0.00130
C903        C  0.14636249  0.98381368  0.46138514    -0.08700
C904        C  0.10793886  0.99506975  0.45598742    -0.06070
C905        C  0.08871977  0.00984106  0.49221265    -0.00140
C906        C  0.11121243  0.51435903  0.53525609    -0.08610
C907        C  0.09072563  0.52087205  0.57899610     0.61770
H908        H  0.17343085  0.51935439  0.57112286     0.12470
H909        H  0.09143187  0.99019241  0.42305182     0.12480
C910        C  0.14893659  0.94884683  0.42602082     0.62010
F911        F  0.08350857  0.48314564  0.60664931    -0.23160
F912        F  0.04621360  0.51865854  0.57353272    -0.20490
F913        F  0.12391018  0.56609576  0.60011624    -0.20170
F914        F  0.10763953  0.90238794  0.42839870    -0.20220
F915        F  0.18905952  0.94265545  0.43158512    -0.20540
F916        F  0.14966021  0.96558115  0.38367776    -0.23210
C917        C  0.47863394  0.62678814  0.51092935    -0.06050
C918        C  0.50110284  0.61337213  0.47745414    -0.00130
C919        C  0.02848870  0.65048302  0.44611015    -0.08700
C920        C  0.03176128  0.69787570  0.45060513    -0.06070
C921        C  0.50601153  0.70899197  0.48319786    -0.00140
C922        C  0.47772094  0.67133136  0.51305439    -0.08610
C923        C  0.44202965  0.67255089  0.54586517     0.61770
H924        H  0.46355214  0.60368314  0.53854144     0.12470
H925        H  0.05179389  0.72540960  0.42608062     0.12480
C926        C  0.05400105  0.64248442  0.40670442     0.62010
F927        F  0.45271495  0.66342551  0.58832952    -0.23160
F928        F  0.39535035  0.63563723  0.53244516    -0.20490
F929        F  0.44177566  0.71636428  0.54849807    -0.20170
F930        F  0.04482754  0.59424528  0.40146683    -0.20220
F931        F  0.10414155  0.67451439  0.41239111    -0.20540
F932        F  0.03806702  0.65322500  0.36751824    -0.23210
C933        C  0.50614147  0.85360696  0.45355057    -0.06050
C934        C  0.50031224  0.83455571  0.49679268    -0.00130
C935        C  0.99013746  0.86075659  0.53181443    -0.08700
C936        C  0.99101718  0.90494562  0.52355817    -0.06070
C937        C  0.49620859  0.92263293  0.48142592    -0.00140
C938        C  0.50445586  0.89749071  0.44542842    -0.08610
C939        C  0.50527600  0.91220900  0.39770103     0.61770
H940        H  0.51345438  0.83501742  0.42606629     0.12470
H941        H  0.98654136  0.92635396  0.55053628     0.12480
C942        C  0.98234839  0.84716483  0.57962110     0.62010
F943        F  0.46164702  0.87710756  0.37811365    -0.23160
F944        F  0.54351789  0.91251774  0.37534068    -0.20490
F945        F  0.50864976  0.95795259  0.39335034    -0.20170
F946        F  0.02860049  0.86551857  0.59703796    -0.20220
F947        F  0.95246114  0.79652683  0.58305663    -0.20540
F948        F  0.96114794  0.86965786  0.60419356    -0.23210
C949        C  0.15726461  0.75628611  0.19579483    -0.06050
C950        C  0.15096548  0.77465185  0.15699656    -0.00130
C951        C  0.14725840  0.75022449  0.11584113    -0.08700
C952        C  0.15313748  0.70829488  0.11644506    -0.06070
C953        C  0.15373528  0.68482115  0.15682994    -0.00140
C954        C  0.15341730  0.71041155  0.19765186    -0.08610
C955        C  0.15926481  0.69837150  0.24412792     0.61770
H956        H  0.16660216  0.77956939  0.22548613     0.12470
H957        H  0.15845733  0.69530507  0.08456146     0.12480
C958        C  0.13800334  0.76847927  0.07190892     0.62010
F959        F  0.15031891  0.72392128  0.27753474    -0.23160
F960        F  0.20870562  0.71557480  0.24936451    -0.20490
F961        F  0.12659850  0.64875273  0.25017181    -0.20170
F962        F  0.16318581  0.81986010  0.07067030    -0.20220
F963        F  0.08859991  0.75247130  0.06718953    -0.20540
F964        F  0.15194482  0.75029542  0.03554761    -0.23210
C965        C  0.14363173  0.98029424  0.19894198    -0.06050
C966        C  0.16467092  0.96867717  0.16227668    -0.00130
C967        C  0.17856341  0.00153466  0.12602087    -0.08700
C968        C  0.17697123  0.54681839  0.13127093    -0.06070
C969        C  0.15649825  0.55753939  0.16913679    -0.00140
C970        C  0.13494691  0.02063892  0.20081070    -0.08610
C971        C  0.10098999  0.02200337  0.23598802     0.61770
H972        H  0.13406745  0.95750620  0.22710471     0.12470
H973        H  0.19216948  0.57435983  0.10595727     0.12480
C974        C  0.19309845  0.98833394  0.08158018     0.62010
F975        F  0.05766935  0.97709823  0.23505231    -0.23160
F976        F  0.08804366  0.05742734  0.22848628    -0.20490
F977        F  0.12261025  0.03118874  0.27818152    -0.20170
F978        F  0.15773125  0.94077695  0.06666307    -0.20220
F979        F  0.23750270  0.99005225  0.08575476    -0.20540
F980        F  0.19758544  0.52101126  0.04915456    -0.23210
C981        C  0.01980154  0.69477781  0.20656190    -0.06050
C982        C  0.98681028  0.67501884  0.16951372    -0.00130
C983        C  0.98840543  0.70885098  0.13812110    -0.08700
C984        C  0.02984469  0.75752643  0.13841415    -0.06070
C985        C  0.06483158  0.77768210  0.17430799    -0.00140
C986        C  0.05605948  0.74616366  0.21125121    -0.08610
C987        C  0.07755342  0.76598326  0.25812464     0.61770
H988        H  0.01561793  0.66994585  0.23295685     0.12470
H989        H  0.03467683  0.77960819  0.10983824     0.12480
C990        C  0.44528278  0.69767461  0.10714925     0.62010
F991        F  0.04611508  0.77605099  0.28068347    -0.23160
F992        F  0.12296735  0.80872472  0.25913011    -0.20490
F993        F  0.08041164  0.73038370  0.28189096    -0.20170
F994        F  0.42902535  0.72966620  0.11979070    -0.20220
F995        F  0.40536568  0.65029259  0.10958279    -0.20540
F996        F  0.46014777  0.70517610  0.06334931    -0.23210
C997        C  0.31881004  0.54994426  0.16099104    -0.06050
C998        C  0.36222653  0.54977556  0.17205755    -0.00130
C999        C  0.35616703  0.00172437  0.17452201    -0.08700
C1000       C  0.30997764  0.96049018  0.15881136    -0.06070
C1001       C  0.26498421  0.96169481  0.16339993    -0.00140
C1002       C  0.27424402  0.00986150  0.17471939    -0.08610
C1003       C  0.26051859  0.01851196  0.22057707     0.61770
H1004       H  0.32046702  0.58378118  0.15335388     0.12470
H1005       H  0.31185977  0.92973223  0.14450939     0.12480
C1006       C  0.39292203  0.99137173  0.19783135     0.62010
F1007       F  0.30096588  0.53602602  0.24949694    -0.23160
F1008       F  0.22400078  0.97498868  0.23745669    -0.20490
F1009       F  0.24611854  0.05348411  0.21878564    -0.20170
F1010       F  0.37151890  0.96239226  0.23386848    -0.20220
F1011       F  0.43462785  0.03374782  0.21461012    -0.20540
F1012       F  0.40629210  0.96585118  0.16844165    -0.23210
C1013       C  0.04056326  0.86369507  0.12703136    -0.06050
C1014       C  0.06822494  0.87448422  0.16763834    -0.00130
C1015       C  0.04440956  0.87651368  0.20730246    -0.08700
C1016       C  0.99666767  0.87008387  0.20410548    -0.06070
C1017       C  0.96618685  0.85180388  0.16506680    -0.00140
C1018       C  0.98934187  0.84800647  0.12530791    -0.08610
C1019       C  0.96177523  0.82477887  0.08110552     0.61770
H1020       H  0.05783680  0.86145168  0.09663430     0.12470
H1021       H  0.48140903  0.87526899  0.23434645     0.12480
C1022       C  0.06340377  0.87889042  0.25474451     0.62010
F1023       F  0.98034732  0.79825738  0.05928468    -0.23160
F1024       F  0.96728690  0.86139819  0.05376291    -0.20490
F1025       F  0.91252012  0.79292866  0.08654513    -0.20170
F1026       F  0.07001760  0.92020975  0.27931313    -0.20220
F1027       F  0.10684073  0.87842837  0.25685902    -0.20540
F1028       F  0.02775757  0.83845958  0.27515065    -0.23210
C1029       C  0.25636116  0.83253837  0.12783028    -0.06050
C1030       C  0.24804685  0.85408526  0.16674987    -0.00130
C1031       C  0.27989348  0.86206065  0.20504535    -0.08700
C1032       C  0.32193407  0.85584147  0.19964954    -0.06070
C1033       C  0.33074172  0.83685199  0.15921065    -0.00140
C1034       C  0.29307558  0.81926898  0.12526104    -0.08610
C1035       C  0.28889737  0.78476778  0.08612313     0.61770
H1036       H  0.23407855  0.82586773  0.09811831     0.12470
H1037       H  0.34958872  0.86813443  0.22647906     0.12480
C1038       C  0.27197978  0.87981786  0.25069131     0.62010
F1039       F  0.24716312  0.73914673  0.08979429    -0.23160
F1040       F  0.32751078  0.77607790  0.08503233    -0.20490
F1041       F  0.28555539  0.80407783  0.04607037    -0.20170
F1042       F  0.22645427  0.84651296  0.26599802    -0.20220
F1043       F  0.27507071  0.92544438  0.24813511    -0.20540
F1044       F  0.30662315  0.88454735  0.28259746    -0.23210
Zr1045     Zr  0.83237052  0.18364196  0.42306435     2.17510
O1046       O  0.84928528  0.18195764  0.50340254    -0.51600
O1047       O  0.79836734  0.10341301  0.46281000    -0.74810
O1048       O  0.79267395  0.22462798  0.45658485    -0.81590
O1049       O  0.95955110  0.21354671  0.40210167    -0.83340
O1050       O  0.73510740  0.22370532  0.40926744    -0.78960
O1051       O  0.91676318  0.23272270  0.45064621    -0.90600
O1052       O  0.75395005  0.03802679  0.41459969    -0.76560
O1053       O  0.75469141  0.13536498  0.38549445    -0.86050
O1054       O  0.84315672  0.12368033  0.38225920    -0.85740
O1055       O  0.81889181  0.23619608  0.37260824    -0.72500
O1056       O  0.89833784  0.23213529  0.37376394    -0.84630
Zr1057     Zr  0.82196874  0.17526765  0.24287074     2.26420
Zr1058     Zr  0.74138523  0.18541642  0.33312091     2.06270
Zr1059     Zr  0.90808721  0.17087825  0.33274690     2.10050
Zr1060     Zr  0.76572541  0.07599983  0.34416796     1.78760
O1061       O  0.99248402  0.19539214  0.31842753    -0.93440
O1062       O  0.68976954  0.07116989  0.36897320    -0.41240
O1063       O  0.83111920  0.11996251  0.29241707    -0.77880
O1064       O  0.75573759  0.12523100  0.29162171    -0.96560
O1065       O  0.80728711  0.23298420  0.28310916    -0.89870
O1066       O  0.89852192  0.22514122  0.28149250    -0.92710
C1067       C  0.77060362  0.05618728  0.45384451     1.01040
C1068       C  0.95591803  0.23340379  0.43961840     1.13970
C1069       C  0.76054630  0.23684854  0.44750814     1.04750
O1070       O  0.65354956  0.14389220  0.34564878    -0.94860
O1071       O  0.69359785  0.13578417  0.25999261    -0.90610
O1072       O  0.74754652  0.15868941  0.20435346    -0.83750
C1073       C  0.70381646  0.13704022  0.21727320     1.11390
O1074       O  0.86949491  0.34257726  0.36392492    -0.96840
Zr1075     Zr  0.88382031  0.28217776  0.32279902     1.88940
O1076       O  0.86469591  0.24972089  0.19858111    -0.73490
O1077       O  0.73956092  0.26233221  0.32109394    -0.52750
O1078       O  0.92147981  0.36969389  0.30352937    -0.97430
O1079       O  0.96488720  0.29939537  0.34956895    -0.54650
O1080       O  0.89674140  0.31482421  0.24822921    -0.74000
C1081       C  0.88819897  0.29660958  0.20804461     0.98340
O1082       O  0.81005860  0.15178259  0.16233420    -0.62820
O1083       O  0.91222413  0.09928988  0.35768126    -0.57630
O1084       O  0.86594563  0.13827912  0.21218535    -0.94310
O1085       O  0.92152501  0.13884862  0.26130442    -0.92740
O1086       O  0.77638206  0.00437452  0.32999485    -0.93090
O1087       O  0.69950749  0.00054869  0.30787692    -0.91880
C1088       C  0.89908890  0.12814985  0.22269544     1.17180
H1089       H  0.85094932  0.10422812  0.40171901     0.33130
H1090       H  0.73040526  0.09654923  0.27495499     0.43980
H1091       H  0.92551111  0.24096130  0.26145059     0.37500
H1092       H  0.81907899  0.26329667  0.38881520     0.33980
H1093       H  0.66262021  0.04546431  0.34960986     0.25770
H1094       H  0.74651442  0.28062687  0.35048539     0.31710
H1095       H  0.95725359  0.38301464  0.30126141     0.37620
H1096       H  0.75497142  0.97875438  0.35088267     0.32080
H1097       H  0.93169209  0.09365938  0.33493764     0.30960
H1098       H  0.01293558  0.21791419  0.34384824     0.32640
H1099       H  0.98819521  0.33225561  0.33861720     0.31600
H1100       H  0.68571855  0.01252360  0.28493071     0.35600
H1101       H  0.77766096  0.12127630  0.15640669     0.28340
H1102       H  0.81846534  0.16574624  0.51974337     0.32570
H1103       H  0.84056900  0.34096533  0.34869895     0.35420
H1104       H  0.93415848  0.11204834  0.38490313     0.28030
H1105       H  0.80842357  0.17811818  0.14589004     0.40900
H1106       H  0.64996105  0.12993723  0.37563156     0.30960
H1107       H  0.68331782  0.05674966  0.39891320     0.38570
H1108       H  0.97291641  0.27681023  0.33237776     0.30420
H1109       H  0.76861168  0.28373203  0.30348690     0.30490
H1110       H  0.86766275  0.21596147  0.51700006     0.30750
C1111       C  0.70537645  0.36600842  0.16497767     0.02010
C1112       C  0.71140807  0.41547522  0.16300822     0.02010
C1113       C  0.66535569  0.41916402  0.16248882     0.02010
C1114       C  0.61700794  0.37421081  0.16709224     0.02010
C1115       C  0.61360045  0.32683705  0.16858633     0.02010
C1116       C  0.65662367  0.32416085  0.16196749     0.02010
C1117       C  0.66519299  0.10975303  0.17995391     0.00290
C1118       C  0.64565775  0.13157374  0.15220273     0.00290
C1119       C  0.91058110  0.33221119  0.17102954     0.00290
C1120       C  0.88307992  0.34879135  0.14799762     0.00290
C1121       C  0.90781154  0.09848907  0.18789998     0.00290
C1122       C  0.95043706  0.11963794  0.16479441     0.00290
C1123       C  0.01011885  0.29178065  0.50499242     0.00290
C1124       C  0.99576675  0.25062163  0.47511412     0.00290
C1125       C  0.76406532  0.01944305  0.48825719     0.00290
C1126       C  0.71979506  0.49224131  0.51068153     0.00290
C1127       C  0.54224029  0.51439128  0.48435628     0.02010
C1128       C  0.99548758  0.46968660  0.47860565     0.02010
C1129       C  0.94942790  0.46939450  0.48005142     0.02010
C1130       C  0.95091564  0.51640780  0.47903067     0.02010
C1131       C  0.99837712  0.06270103  0.47961930     0.02010
C1132       C  0.54356093  0.06131178  0.48668285     0.02010
C1133       C  0.75958488  0.27272275  0.48377897     0.00290
C1134       C  0.72901307  0.25350895  0.52026781     0.00290
Zr1135     Zr  0.97191042  0.00562292  0.91135326     2.17510
O1136       O  0.95820255  0.01458384  0.83203051    -0.51600
O1137       O  0.50616632  0.96128999  0.86239220    -0.74810
O1138       O  0.51354098  0.08974769  0.88236415    -0.81590
O1139       O  0.85041907  0.39457828  0.93044613    -0.83340
O1140       O  0.58009008  0.13716881  0.92921622    -0.78960
O1141       O  0.88541545  0.46377053  0.89023300    -0.90600
O1142       O  0.55226219  0.44212320  0.90730760    -0.76560
O1143       O  0.54579025  0.02762308  0.95112576    -0.86050
O1144       O  0.95724193  0.43257313  0.94881335    -0.85740
O1145       O  0.49006563  0.07392979  0.96508583    -0.72500
O1146       O  0.90686890  0.98747061  0.96322677    -0.84630
Zr1147     Zr  0.49160628  0.00624274  0.08995324     2.26420
Zr1148     Zr  0.56561113  0.09662626  0.00283341     2.06270
Zr1149     Zr  0.89510055  0.41750448  0.00278470     2.10050
Zr1150     Zr  0.53479892  0.45585278  0.98443664     1.78760
O1151       O  0.81352822  0.40235818  0.02049560    -0.93440
O1152       O  0.62423748  0.00072269  0.98230097    -0.41240
O1153       O  0.97241130  0.43967232  0.03671303    -0.77880
O1154       O  0.55556547  0.02350761  0.03801963    -0.96560
O1155       O  0.50314628  0.07848018  0.05457769    -0.89870
O1156       O  0.91339788  0.98336820  0.05658243    -0.92710
C1157       C  0.53673719  0.44495103  0.86811020     1.01040
C1158       C  0.85166609  0.41888516  0.89592352     1.13970
C1159       C  0.55626524  0.12783458  0.89097301     1.04750
O1160       O  0.65426308  0.15185962  0.99763590    -0.94860
O1161       O  0.61213720  0.11435145  0.07559149    -0.90610
O1162       O  0.56912053  0.06077334  0.12874914    -0.83750
C1163       C  0.60725467  0.09956779  0.11623109     1.11390
O1164       O  0.91243343  0.08790945  0.95019164    -0.96840
Zr1165     Zr  0.92649992  0.05381062  0.01701695     1.88940
O1166       O  0.96601663  0.05688309  0.13431091    -0.73490
O1167       O  0.55727986  0.16834401  0.02234305    -0.52750
O1168       O  0.90447653  0.11833183  0.01438560    -0.97430
O1169       O  0.84100599  0.00399141  0.03842246    -0.54650
O1170       O  0.94934862  0.10209017  0.08697849    -0.74000
C1171       C  0.95584470  0.09118842  0.12641636     0.98340
O1172       O  0.50186920  0.47512974  0.16047164    -0.62820
O1173       O  0.86322624  0.32912710  0.99414571    -0.57630
O1174       O  0.94628922  0.42569803  0.12276179    -0.94310
O1175       O  0.88194979  0.37752725  0.07476281    -0.92740
O1176       O  0.50966492  0.36819661  0.97432273    -0.93090
O1177       O  0.56812238  0.42725354  0.04243109    -0.91880
C1178       C  0.90563481  0.38591768  0.11257499     1.17180
H1179       H  0.94644792  0.40438027  0.92786625     0.33130
H1180       H  0.58496204  0.02931727  0.05394889     0.43980
H1181       H  0.88901279  0.47348426  0.07923337     0.37500
H1182       H  0.49374411  0.10351642  0.95222794     0.33980
H1183       H  0.63154137  0.51102516  0.95112565     0.25770
H1184       H  0.57051118  0.18972043  0.99637731     0.31710
H1185       H  0.87340534  0.10542678  0.03045431     0.37620
H1186       H  0.53972217  0.36800024  0.96537868     0.32080
H1187       H  0.85916203  0.32388472  0.96124389     0.30960
H1188       H  0.79092736  0.37747355  0.99731857     0.32640
H1189       H  0.82288220  0.01810318  0.02354663     0.31600
H1190       H  0.56952003  0.44658653  0.06999421     0.35600
H1191       H  0.53330029  0.47535188  0.15787494     0.28340
H1192       H  0.99034304  0.03157522  0.81749290     0.32570
H1193       H  0.90635520  0.06332122  0.92538932     0.35420
H1194       H  0.89104213  0.32444096  0.00255204     0.28030
H1195       H  0.50796811  0.50141086  0.18352143     0.40900
H1196       H  0.66909808  0.13156488  0.00589325     0.30960
H1197       H  0.63570407  0.03254282  0.99958392     0.38570
H1198       H  0.84152499  0.01321751  0.07058115     0.30420
H1199       H  0.52175428  0.15707423  0.02078749     0.30490
H1200       H  0.94481865  0.03733220  0.83047905     0.30750
Zr1201     Zr  0.65121347  0.33702582  0.75731081     2.17510
O1202       O  0.65351923  0.32281415  0.83760539    -0.51600
O1203       O  0.60195538  0.26029462  0.79715929    -0.74810
O1204       O  0.60686154  0.37585090  0.78775336    -0.81590
O1205       O  0.77836633  0.36280764  0.75375837    -0.83340
O1206       O  0.54395538  0.34626645  0.73639968    -0.78960
O1207       O  0.73121855  0.38920808  0.78841075    -0.90600
O1208       O  0.59042536  0.19572392  0.75194850    -0.76560
O1209       O  0.58210181  0.27889778  0.71334943    -0.86050
O1210       O  0.67827897  0.28651114  0.72104473    -0.85740
O1211       O  0.63711470  0.38664975  0.70605240    -0.72500
O1212       O  0.72003805  0.38790441  0.71126557    -0.84630
Zr1213     Zr  0.65871115  0.33326360  0.57980454     2.26420
Zr1214     Zr  0.56701575  0.32766466  0.66176388     2.06270
Zr1215     Zr  0.74509715  0.33655070  0.67257995     2.10050
Zr1216     Zr  0.60918197  0.22824551  0.67715427     1.78760
O1217       O  0.82639860  0.40434469  0.65701904    -0.93440
O1218       O  0.52250914  0.17638529  0.65421989    -0.41240
O1219       O  0.67338830  0.28085237  0.62886649    -0.77880
O1220       O  0.59174197  0.27471712  0.62398447    -0.96560
O1221       O  0.63340058  0.38379228  0.61737300    -0.89870
O1222       O  0.73150593  0.38882978  0.62313708    -0.92710
C1223       C  0.58666332  0.21385915  0.78966691     1.01040
C1224       C  0.76954219  0.38558026  0.78687250     1.13970
C1225       C  0.56516904  0.36931670  0.77426146     1.04750
O1226       O  0.48111195  0.26246455  0.65303970    -0.94860
O1227       O  0.52957501  0.29257725  0.58417889    -0.90610
O1228       O  0.59011468  0.32191079  0.53475441    -0.83750
C1229       C  0.54504470  0.30140619  0.54370834     1.11390
O1230       O  0.72360153  0.49004096  0.73104446    -0.96840
Zr1231     Zr  0.70501000  0.43871223  0.66209805     1.88940
O1232       O  0.69588373  0.41033272  0.53695850    -0.73490
O1233       O  0.55972463  0.40365157  0.66714903    -0.52750
O1234       O  0.66221749  0.48394319  0.65135395    -0.97430
O1235       O  0.78611346  0.51144661  0.67802560    -0.54650
O1236       O  0.71753042  0.47375432  0.58796135    -0.74000
C1237       C  0.71242778  0.45674983  0.54726337     0.98340
O1238       O  0.64262353  0.28596729  0.50823515    -0.62820
O1239       O  0.79455280  0.29667777  0.67761584    -0.57630
O1240       O  0.71109614  0.31326980  0.54253569    -0.94310
O1241       O  0.74121824  0.28835820  0.59911751    -0.92740
O1242       O  0.66336122  0.20745545  0.63584269    -0.93090
O1243       O  0.59316798  0.14487279  0.69480944    -0.91880
C1244       C  0.72960495  0.28833045  0.55666425     1.17180
H1245       H  0.68697729  0.27031835  0.74319370     0.33130
H1246       H  0.56683560  0.24950191  0.60386333     0.43980
H1247       H  0.75883681  0.40743497  0.60419068     0.37500
H1248       H  0.63263123  0.41185430  0.72086095     0.33980
H1249       H  0.51471278  0.14136439  0.65184122     0.25770
H1250       H  0.52473498  0.39311491  0.67016506     0.31710
H1251       H  0.68912986  0.51809087  0.64591099     0.37620
H1252       H  0.66660579  0.18157322  0.65126178     0.32080
H1253       H  0.80834635  0.30338373  0.70863477     0.30960
H1254       H  0.84929248  0.39880775  0.67567334     0.32640
H1255       H  0.78839589  0.53754614  0.65839894     0.31600
H1256       H  0.55747437  0.12289632  0.69879599     0.35600
H1257       H  0.60854152  0.25762704  0.50880018     0.28340
H1258       H  0.63218230  0.33340610  0.85246962     0.32570
H1259       H  0.72477400  0.52099623  0.72222643     0.35420
H1260       H  0.77080863  0.26045771  0.67510206     0.28030
H1261       H  0.64250560  0.30713397  0.48414189     0.40900
H1262       H  0.48182326  0.23125732  0.64870214     0.30960
H1263       H  0.50511481  0.17768029  0.68109399     0.38570
H1264       H  0.81027905  0.50268103  0.66712118     0.30420
H1265       H  0.57583598  0.42396450  0.69494188     0.30490
H1266       H  0.68687126  0.34479933  0.85100006     0.30750
C1267       C  0.80563602  0.41521437  0.82458965     0.00290
C1268       C  0.81618536  0.39136412  0.85790927     0.00290
C1269       C  0.76811484  0.15500576  0.82136769     0.02010
C1270       C  0.81325415  0.20037930  0.83247554     0.02010
C1271       C  0.85834984  0.19978033  0.83170113     0.02010
C1272       C  0.85896072  0.15431567  0.82859782     0.02010
C1273       C  0.81262752  0.10775312  0.82494532     0.02010
C1274       C  0.76589558  0.10679464  0.81735721     0.02010
C1275       C  0.56095238  0.17912407  0.82629441     0.00290
C1276       C  0.58275955  0.15737043  0.85184025     0.00290
C1277       C  0.56001570  0.43217752  0.82816340     0.00290
C1278       C  0.53787005  0.38543986  0.80538320     0.00290
C1279       C  0.94013815  0.17297192  0.86773559    -0.06050
C1280       C  0.90932209  0.15665593  0.82836500    -0.00130
C1281       C  0.93124543  0.15181144  0.78850633    -0.08700
C1282       C  0.97728098  0.15356559  0.79136107    -0.06070
C1283       C  0.00781389  0.16882585  0.83090605    -0.00140
C1284       C  0.98974836  0.18296166  0.86879411    -0.08610
C1285       C  0.02235769  0.21484753  0.90855058     0.61770
H1286       H  0.92678921  0.18221000  0.89748038     0.12470
H1287       H  0.99176358  0.14728902  0.76071079     0.12480
C1288       C  0.91336080  0.15500348  0.74178856     0.62010
F1289       F  0.02676957  0.26126487  0.90767417    -0.23160
F1290       F  0.06943110  0.22258888  0.90844720    -0.20490
F1291       F  0.00110496  0.19312422  0.94803411    -0.20170
F1292       F  0.94552775  0.20152131  0.72654985    -0.20220
F1293       F  0.86668637  0.14863494  0.74028861    -0.20540
F1294       F  0.91372592  0.12002576  0.71250784    -0.23210
C1295       C  0.66795660  0.19223048  0.81420615    -0.06050
C1296       C  0.63116182  0.15667339  0.84129518    -0.00130
C1297       C  0.64338656  0.12087202  0.85845717    -0.08700
C1298       C  0.69038135  0.12817952  0.85516613    -0.06070
C1299       C  0.72172919  0.15714048  0.82371886    -0.00140
C1300       C  0.70937311  0.18884083  0.80081031    -0.08610
C1301       C  0.73563627  0.21680267  0.76046737     0.61770
H1302       H  0.66582044  0.22327387  0.80286289     0.12470
H1303       H  0.70244858  0.10840312  0.87649996     0.12480
C1304       C  0.61292137  0.07607633  0.88441724     0.62010
F1305       F  0.70227471  0.20093820  0.72475125    -0.23160
F1306       F  0.77364896  0.20940601  0.74816669    -0.20490
F1307       F  0.75364235  0.26678299  0.76922937    -0.20170
F1308       F  0.56485126  0.05266286  0.87000979    -0.20220
F1309       F  0.62250385  0.09101020  0.92893314    -0.20540
F1310       F  0.62646680  0.04079691  0.87908174    -0.23210
C1311       C  0.62467997  0.00702607  0.78705269    -0.06050
C1312       C  0.61372778  0.97067987  0.81902249    -0.00130
C1313       C  0.65447113  0.97499079  0.84399474    -0.08700
C1314       C  0.70206318  0.01655695  0.83896281    -0.06070
C1315       C  0.71415468  0.05645078  0.81062878    -0.00140
C1316       C  0.67343792  0.04811304  0.78122831    -0.08610
C1317       C  0.67838348  0.07934045  0.74170934     0.61770
H1318       H  0.59446374  0.00358583  0.76632779     0.12470
H1319       H  0.72926768  0.01670696  0.85945159     0.12480
C1320       C  0.65115407  0.43810298  0.87791447     0.62010
F1321       F  0.65775664  0.04880839  0.70381545    -0.23160
F1322       F  0.72678828  0.11304225  0.73336479    -0.20490
F1323       F  0.65226078  0.10347149  0.74874709    -0.20170
F1324       F  0.68390162  0.42266399  0.86672821    -0.20220
F1325       F  0.60493036  0.39656164  0.87993108    -0.20540
F1326       F  0.66496744  0.46140972  0.92007120    -0.23210
C1327       C  0.91879155  0.26415321  0.78480351    -0.06050
C1328       C  0.90560508  0.24753107  0.82820812    -0.00130
C1329       C  0.93418628  0.27886479  0.86540157    -0.08700
C1330       C  0.97718714  0.32421649  0.85730369    -0.06070
C1331       C  0.98768711  0.34276566  0.81407743    -0.00140
C1332       C  0.95437649  0.31352185  0.77787667    -0.08610
C1333       C  0.95030320  0.33504358  0.73380391     0.61770
H1334       H  0.89506310  0.24140479  0.75664769     0.12470
H1335       H  0.00204793  0.34561864  0.88515894     0.12480
C1336       C  0.91976793  0.26855156  0.91366106     0.62010
F1337       F  0.90246725  0.32254255  0.72435033    -0.23160
F1338       F  0.96268312  0.31503136  0.69869381    -0.20490
F1339       F  0.97929841  0.38644216  0.73493006    -0.20170
F1340       F  0.95540901  0.26575450  0.93856511    -0.20220
F1341       F  0.87543575  0.22537196  0.91869382    -0.20540
F1342       F  0.91623031  0.30797709  0.93086018    -0.23210
C1343       C  0.82546251  0.04174206  0.78961333    -0.06050
C1344       C  0.81523016  0.06092601  0.82816733    -0.00130
C1345       C  0.81283007  0.03829222  0.86944564    -0.08700
C1346       C  0.81014791  0.99095546  0.86831319    -0.06070
C1347       C  0.81795865  0.96996300  0.82846031    -0.00140
C1348       C  0.83139385  0.99981258  0.79003643    -0.08610
C1349       C  0.85232505  0.98858256  0.74889599     0.61770
H1350       H  0.82977781  0.06050802  0.75874645     0.12470
H1351       H  0.80104294  0.46991021  0.89836678     0.12480
C1352       C  0.81038352  0.06293257  0.91388386     0.62010
F1353       F  0.87733081  0.02977652  0.72355262    -0.23160
F1354       F  0.81505257  0.95184496  0.72247080    -0.20490
F1355       F  0.88549615  0.97428510  0.76047618    -0.20170
F1356       F  0.77017367  0.06938006  0.91580713    -0.20220
F1357       F  0.85119930  0.10969872  0.91969963    -0.20540
F1358       F  0.80858625  0.03504039  0.94956515    -0.23210
C1359       C  0.78460204  0.30209184  0.87894125    -0.06050
C1360       C  0.81095632  0.34092967  0.84955767    -0.00130
C1361       C  0.84243404  0.33560128  0.81986969    -0.08700
C1362       C  0.83817097  0.28867801  0.81338103    -0.06070
C1363       C  0.81361882  0.24959506  0.84267403    -0.00140
C1364       C  0.78836142  0.25830753  0.87837308    -0.08610
C1365       C  0.76523868  0.22390750  0.91688997     0.61770
H1366       H  0.76383545  0.30767651  0.90482814     0.12470
H1367       H  0.85284100  0.28226655  0.78372999     0.12480
C1368       C  0.88395526  0.37921176  0.79722536     0.62160
F1369       F  0.71532602  0.20646289  0.91623950    -0.23160
F1370       F  0.77352893  0.18434026  0.91583742    -0.20490
F1371       F  0.78417928  0.24961911  0.95738393    -0.20170
F1372       F  0.89533878  0.42460265  0.81507725    -0.20220
F1373       F  0.87324861  0.37771210  0.75209542    -0.20540
F1374       F  0.92626182  0.37825090  0.80404535    -0.23210
C1375       C  0.63606420  0.11923181  0.47943922    -0.06050
C1376       C  0.59173095  0.10897076  0.49925582    -0.00130
C1377       C  0.59613367  0.14320333  0.53418908    -0.08700
C1378       C  0.63890220  0.19107768  0.53783764    -0.06070
C1379       C  0.68267533  0.20122647  0.51704725    -0.00140
C1380       C  0.68131885  0.15911735  0.49667526    -0.08610
C1381       C  0.71905643  0.14618372  0.51126287     0.61770
H1382       H  0.63667702  0.09293830  0.45537692     0.12470
H1383       H  0.63851939  0.21905076  0.55979278     0.12480
C1384       C  0.56142739  0.12972715  0.57224064     0.62010
F1385       F  0.69923487  0.11009314  0.54216582    -0.23160
F1386       F  0.75895512  0.18588531  0.53298972    -0.20490
F1387       F  0.73305324  0.12868547  0.47483935    -0.20170
F1388       F  0.51974258  0.08342552  0.56769677    -0.20220
F1389       F  0.04871715  0.16583026  0.57741081    -0.20540
F1390       F  0.58544466  0.12894860  0.61048177    -0.23210
C1391       C  0.81409797  0.37106183  0.50792886    -0.06050
C1392       C  0.80665121  0.32591767  0.48622115    -0.00130
C1393       C  0.85110841  0.32959998  0.47423807    -0.08700
C1394       C  0.88862736  0.37587724  0.45961901    -0.06070
C1395       C  0.89964916  0.41997450  0.48411760    -0.00140
C1396       C  0.86287161  0.41294056  0.51517809    -0.08610
C1397       C  0.87738865  0.43206049  0.56335954     0.61770
H1398       H  0.78566247  0.37374959  0.52438758     0.12470
H1399       H  0.91463549  0.37564221  0.43754669     0.12480
C1400       C  0.87016701  0.30760446  0.50763466     0.62010
F1401       F  0.87051200  0.39305217  0.58901644    -0.23160
F1402       F  0.84774691  0.44926585  0.57924824    -0.20490
F1403       F  0.92618375  0.46895073  0.56908311    -0.20170
F1404       F  0.90044665  0.29491973  0.48616719    -0.20220
F1405       F  0.83413485  0.26727822  0.52852426    -0.20540
F1406       F  0.89551355  0.34211035  0.54178520    -0.23210
C1407       C  0.88674877  0.52626834  0.52095120    -0.06050
C1408       C  0.90218602  0.51631272  0.47995286    -0.00130
C1409       C  0.86848935  0.00133485  0.44268093    -0.08700
C1410       C  0.82197123  0.99789337  0.44831182    -0.06070
C1411       C  0.80808676  0.01117756  0.48930706    -0.00140
C1412       C  0.84281630  0.52748015  0.52566751    -0.08610
C1413       C  0.83248958  0.54111670  0.57138131     0.61770
H1414       H  0.90921249  0.53226650  0.55069432     0.12470
H1415       H  0.79625170  0.98561158  0.41996930     0.12480
C1416       C  0.88112156  0.98830107  0.39723107     0.62010
F1417       F  0.87504575  0.56911024  0.59760177    -0.23160
F1418       F  0.80435015  0.49738175  0.59173118    -0.20490
F1419       F  0.80819738  0.56771027  0.56905438    -0.20170
F1420       F  0.87675139  0.94191102  0.39749195    -0.20220
F1421       F  0.92880286  0.02303265  0.38717488    -0.20540
F1422       F  0.85011439  0.98726619  0.36339419    -0.23210
C1423       C  0.65479430  0.01133966  0.53874784    -0.06050
C1424       C  0.67481773  0.49833142  0.50224209    -0.00130
C1425       C  0.64636190  0.48381806  0.46139887    -0.08700
C1426       C  0.60793460  0.49506969  0.45600725    -0.06070
C1427       C  0.58871665  0.50983698  0.49223608    -0.00140
C1428       C  0.61120624  0.01435587  0.53523555    -0.08610
C1429       C  0.59071319  0.02086724  0.57897245     0.61770
H1430       H  0.67341480  0.01933966  0.57111197     0.12470
H1431       H  0.59142531  0.49019445  0.42307329     0.12480
C1432       C  0.64893066  0.44884748  0.42603519     0.62010
F1433       F  0.58348114  0.98313331  0.60662220    -0.23160
F1434       F  0.54620726  0.01866471  0.57350239    -0.20490
F1435       F  0.62389947  0.06608551  0.60010010    -0.20170
F1436       F  0.60764394  0.40238392  0.42843300    -0.20220
F1437       F  0.68906511  0.44267259  0.43158450    -0.20540
F1438       F  0.64962737  0.46556571  0.38368945    -0.23210
C1439       C  0.97862358  0.12677771  0.51091448    -0.06050
C1440       C  0.00109921  0.11337073  0.47743978    -0.00130
C1441       C  0.52849104  0.15049039  0.44610533    -0.08700
C1442       C  0.53176151  0.19788150  0.45060784    -0.06070
C1443       C  0.00600540  0.20898728  0.48319816    -0.00140
C1444       C  0.97770889  0.17131884  0.51304600    -0.08610
C1445       C  0.94201442  0.17253027  0.54585747     0.61770
H1446       H  0.96353983  0.10366852  0.53852300     0.12470
H1447       H  0.55179791  0.22542183  0.42608932     0.12480
C1448       C  0.55401312  0.14250245  0.40670183     0.62010
F1449       F  0.95270584  0.16341157  0.58832224    -0.23160
F1450       F  0.89533621  0.13561022  0.53244047    -0.20490
F1451       F  0.94175214  0.21633831  0.54848766    -0.20170
F1452       F  0.54483818  0.09426357  0.40145428    -0.20220
F1453       F  0.60415297  0.17452980  0.41240022    -0.20540
F1454       F  0.53809070  0.15325554  0.36751604    -0.23210
C1455       C  0.00613599  0.35360374  0.45357649    -0.06050
C1456       C  0.00029192  0.33453862  0.49681267    -0.00130
C1457       C  0.49009845  0.36072390  0.53183831    -0.08700
C1458       C  0.49099577  0.40492499  0.52359247    -0.06070
C1459       C  0.99620300  0.42262628  0.48146210    -0.00140
C1460       C  0.00445118  0.39748792  0.44546065    -0.08610
C1461       C  0.00527152  0.41220724  0.39773305     0.61770
H1462       H  0.01345467  0.33502092  0.42609019     0.12470
H1463       H  0.48651272  0.42632400  0.55057502     0.12480
C1464       C  0.48225289  0.34708917  0.57963511     0.62010
F1465       F  0.96164926  0.37709769  0.37814010    -0.23160
F1466       F  0.04352046  0.41252789  0.37537556    -0.20490
F1467       F  0.00863189  0.45794487  0.39338304    -0.20170
F1468       F  0.52847849  0.36543312  0.59710084    -0.20220
F1469       F  0.45237465  0.29644580  0.58303606    -0.20540
F1470       F  0.46102186  0.36955767  0.60419671    -0.23210
C1471       C  0.65727161  0.25629346  0.19578861    -0.06050
C1472       C  0.65096468  0.27465510  0.15699116    -0.00130
C1473       C  0.64725284  0.25022556  0.11583586    -0.08700
C1474       C  0.65312865  0.20829397  0.11643912    -0.06070
C1475       C  0.65373757  0.18482539  0.15682408    -0.00140
C1476       C  0.65343038  0.21042173  0.19764648    -0.08610
C1477       C  0.65928871  0.19838792  0.24412203     0.61770
H1478       H  0.66661662  0.27958096  0.22547787     0.12470
H1479       H  0.65843974  0.19530026  0.08455411     0.12480
C1480       C  0.63799918  0.26848156  0.07190360     0.62010
F1481       F  0.65035795  0.22394760  0.27753171    -0.23160
F1482       F  0.70872925  0.21558346  0.24934705    -0.20490
F1483       F  0.62661688  0.14877176  0.25017273    -0.20170
F1484       F  0.66318142  0.31986250  0.07066637    -0.20220
F1485       F  0.58859601  0.25247320  0.06718201    -0.20540
F1486       F  0.65194257  0.25029940  0.03554244    -0.23210
C1487       C  0.64362738  0.48029129  0.19895022    -0.06050
C1488       C  0.66466784  0.46867782  0.16228371    -0.00130
C1489       C  0.67856108  0.50153749  0.12602970    -0.08700
C1490       C  0.67697376  0.04681705  0.13126102    -0.06070
C1491       C  0.65650129  0.05754077  0.16912598    -0.00140
C1492       C  0.63494249  0.52063555  0.20082118    -0.08610
C1493       C  0.60098280  0.52199560  0.23599714     0.61770
H1494       H  0.63406033  0.45750010  0.22711142     0.12470
H1495       H  0.69217164  0.07435694  0.10594606     0.12480
C1496       C  0.69310016  0.48834174  0.08158876     0.62010
F1497       F  0.55766493  0.47708778  0.23506089    -0.23160
F1498       F  0.58803125  0.55741518  0.22849353    -0.20490
F1499       F  0.62260312  0.53118363  0.27819091    -0.20170
F1500       F  0.65774436  0.44077882  0.06667483    -0.20220
F1501       F  0.73751361  0.49007925  0.08576132    -0.20540
F1502       F  0.69759696  0.02101079  0.04914838    -0.23210
C1503       C  0.51978747  0.19478432  0.20655847    -0.06050
C1504       C  0.48680435  0.17502258  0.16950546    -0.00130
C1505       C  0.48840678  0.20884975  0.13810335    -0.08700
C1506       C  0.52984427  0.25752758  0.13840103    -0.06070
C1507       C  0.56482807  0.27768381  0.17429869    -0.00140
C1508       C  0.55605028  0.24616776  0.21124501    -0.08610
C1509       C  0.57755941  0.26598179  0.25811577     0.61770
H1510       H  0.51559986  0.16995356  0.23295581     0.12470
H1511       H  0.53468103  0.27960940  0.10982393     0.12480
C1512       C  0.94529706  0.19765573  0.10710246     0.62010
F1513       F  0.54612857  0.27604372  0.28069554    -0.23160
F1514       F  0.62297101  0.30872544  0.25911586    -0.20490
F1515       F  0.58042894  0.23037828  0.28186566    -0.20170
F1516       F  0.92903242  0.22965404  0.11969595    -0.20220
F1517       F  0.90537757  0.15027755  0.10955230    -0.20540
F1518       F  0.96018001  0.20512326  0.06330572    -0.23210
C1519       C  0.81881887  0.04994027  0.16098115    -0.06050
C1520       C  0.86223366  0.04976954  0.17205254    -0.00130
C1521       C  0.85616323  0.50173207  0.17451492    -0.08700
C1522       C  0.80997342  0.46049692  0.15880593    -0.06070
C1523       C  0.76497942  0.46169856  0.16340223    -0.00140
C1524       C  0.77423685  0.50986295  0.17472815    -0.08610
C1525       C  0.76051171  0.51850829  0.22058761     0.61770
H1526       H  0.82047967  0.08377878  0.15334221     0.12470
H1527       H  0.81185479  0.42973933  0.14450143     0.12480
C1528       C  0.89292716  0.49138037  0.19780596     0.62010
F1529       F  0.80097217  0.03602847  0.24948751    -0.23160
F1530       F  0.72399612  0.47498224  0.23746546    -0.20490
F1531       F  0.74610844  0.55347818  0.21880062    -0.20170
F1532       F  0.87153191  0.46238088  0.23383372    -0.20220
F1533       F  0.93462832  0.53375462  0.21459406    -0.20540
F1534       F  0.90630262  0.46588161  0.16839687    -0.23210
C1535       C  0.54056365  0.36370053  0.12703014    -0.06050
C1536       C  0.56822274  0.37448494  0.16763788    -0.00130
C1537       C  0.54440426  0.37650686  0.20730226    -0.08700
C1538       C  0.49666243  0.37007609  0.20410490    -0.06070
C1539       C  0.46618366  0.35180032  0.16506520    -0.00140
C1540       C  0.48934206  0.34800956  0.12530557    -0.08610
C1541       C  0.46178271  0.32478773  0.08109961     0.61770
H1542       H  0.55783814  0.36145941  0.09663291     0.12470
H1543       H  0.98140202  0.37525684  0.23434454     0.12480
C1544       C  0.56339394  0.37887504  0.25474419     0.62010
F1545       F  0.48033338  0.29823600  0.05929675    -0.23160
F1546       F  0.46733374  0.36141324  0.05374626    -0.20490
F1547       F  0.41252001  0.29296704  0.08652793    -0.20170
F1548       F  0.56999968  0.42018735  0.27931981    -0.20220
F1549       F  0.60683443  0.37842013  0.25685878    -0.20540
F1550       F  0.52774760  0.33843548  0.27514178    -0.23210
C1551       C  0.75636020  0.33254418  0.12782757    -0.06050
C1552       C  0.74804660  0.35409080  0.16674755    -0.00130
C1553       C  0.77989393  0.36206598  0.20504259    -0.08700
C1554       C  0.82193213  0.35584252  0.19964690    -0.06070
C1555       C  0.83073930  0.33685317  0.15920785    -0.00140
C1556       C  0.79307344  0.31927319  0.12525781    -0.08610
C1557       C  0.78889432  0.28477464  0.08611763     0.61770
H1558       H  0.73407661  0.32587348  0.09811606     0.12470
H1559       H  0.84958611  0.36813286  0.22647671     0.12480
C1560       C  0.77198453  0.37982809  0.25068814     0.62010
F1561       F  0.74714807  0.23916055  0.08977514    -0.23160
F1562       F  0.82749628  0.27606648  0.08503675    -0.20490
F1563       F  0.78557405  0.30409918  0.04606614    -0.20170
F1564       F  0.72645596  0.34653135  0.26599476    -0.20220
F1565       F  0.77508738  0.42545985  0.24813126    -0.20540
F1566       F  0.80662427  0.38455013  0.28259480    -0.23210
Zr1567     Zr  0.83237604  0.68364844  0.42306757     2.17510
O1568       O  0.84929554  0.68196463  0.50340387    -0.51600
O1569       O  0.79837394  0.60342135  0.46281625    -0.74810
O1570       O  0.79268753  0.72463713  0.45659467    -0.81590
O1571       O  0.95955834  0.71355413  0.40209528    -0.83340
O1572       O  0.73511244  0.72370878  0.40928540    -0.78960
O1573       O  0.91677092  0.73272465  0.45064417    -0.90600
O1574       O  0.75394967  0.53803477  0.41460794    -0.76560
O1575       O  0.75469366  0.63536727  0.38550441    -0.86050
O1576       O  0.84316065  0.62368814  0.38226083    -0.85740
O1577       O  0.81888885  0.73619855  0.37261336    -0.72500
O1578       O  0.89833923  0.73214578  0.37376520    -0.84630
Zr1579     Zr  0.82195860  0.67527088  0.24287491     2.26420
Zr1580     Zr  0.74137854  0.68541530  0.33313382     2.06270
Zr1581     Zr  0.90808602  0.67088866  0.33274460     2.10050
Zr1582     Zr  0.76572697  0.57600377  0.34417434     1.78760
O1583       O  0.99248086  0.69539737  0.31842381    -0.93440
O1584       O  0.68976536  0.57116327  0.36897616    -0.41240
O1585       O  0.83111560  0.61996836  0.29241908    -0.77880
O1586       O  0.75573194  0.62523222  0.29163029    -0.96560
O1587       O  0.80727460  0.73298418  0.28311675    -0.89870
O1588       O  0.89851339  0.72514716  0.28149067    -0.92710
C1589       C  0.77060656  0.55619564  0.45385190     1.01040
C1590       C  0.95592616  0.73340878  0.43961338     1.13970
C1591       C  0.76055781  0.73685572  0.44752329     1.04750
O1592       O  0.65354366  0.64387902  0.34566724    -0.94860
O1593       O  0.69359137  0.63578179  0.26000469    -0.90610
O1594       O  0.74753799  0.65870090  0.20436308    -0.83750
C1595       C  0.70380886  0.63704127  0.21728449     1.11390
O1596       O  0.86948638  0.84258254  0.36392125    -0.96840
Zr1597     Zr  0.88381106  0.78218074  0.32279952     1.88940
O1598       O  0.86468346  0.74972199  0.19858092    -0.73490
O1599       O  0.73953353  0.76232078  0.32111042    -0.52750
O1600       O  0.92143675  0.86969354  0.30352421    -0.97430
O1601       O  0.96487680  0.79939242  0.34956417    -0.54650
O1602       O  0.89675322  0.81482481  0.24822960    -0.74000
C1603       C  0.88820097  0.79661069  0.20804503     0.98340
O1604       O  0.81003845  0.65177866  0.16234002    -0.62820
O1605       O  0.91221681  0.59929541  0.35766947    -0.57630
O1606       O  0.86593501  0.63828056  0.21219131    -0.94310
O1607       O  0.92153162  0.63886984  0.26130105    -0.92740
O1608       O  0.77640560  0.50439109  0.33000981    -0.93090
O1609       O  0.69951214  0.50054528  0.30788932    -0.91880
C1610       C  0.89908585  0.62816028  0.22269652     1.17180
H1611       H  0.85095517  0.60423741  0.40172078     0.33130
H1612       H  0.73039954  0.59654829  0.27496562     0.43980
H1613       H  0.92550093  0.74096739  0.26144706     0.37500
H1614       H  0.81907776  0.76330016  0.38882020     0.33980
H1615       H  0.66261724  0.54545316  0.34961496     0.25770
H1616       H  0.74648352  0.78061440  0.35050203     0.31710
H1617       H  0.95721182  0.88302869  0.30124411     0.37620
H1618       H  0.75498711  0.47876468  0.35088930     0.32080
H1619       H  0.93167731  0.59366174  0.33491986     0.30960
H1620       H  0.01293559  0.71791822  0.34384380     0.32640
H1621       H  0.98818219  0.83225117  0.33860968     0.31600
H1622       H  0.68571216  0.51251415  0.28494756     0.35600
H1623       H  0.77763975  0.62127250  0.15641698     0.28340
H1624       H  0.81847693  0.66576834  0.51974730     0.32570
H1625       H  0.84054080  0.84094688  0.34871299     0.35420
H1626       H  0.93415849  0.61205473  0.38488661     0.28030
H1627       H  0.80840279  0.67811315  0.14589451     0.40900
H1628       H  0.64996061  0.62992913  0.37565179     0.30960
H1629       H  0.68331625  0.55674705  0.39891785     0.38570
H1630       H  0.97290532  0.77680793  0.33237083     0.30420
H1631       H  0.76858307  0.78372495  0.30350376     0.30490
H1632       H  0.86768927  0.71596917  0.51699830     0.30750
C1633       C  0.70537815  0.86600530  0.16497936     0.02010
C1634       C  0.71141077  0.91547267  0.16300684     0.02010
C1635       C  0.66535822  0.91916243  0.16248621     0.02010
C1636       C  0.61701025  0.87420951  0.16709380     0.02010
C1637       C  0.61360308  0.82683564  0.16859325     0.02010
C1638       C  0.65662547  0.82415839  0.16197308     0.02010
C1639       C  0.66518634  0.60975021  0.17996537     0.00290
C1640       C  0.64565487  0.63157020  0.15220953     0.00290
C1641       C  0.91058415  0.83221289  0.17103086     0.00290
C1642       C  0.88308233  0.84879212  0.14799907     0.00290
C1643       C  0.90780543  0.59849594  0.18790251     0.00290
C1644       C  0.95043538  0.61963595  0.16480382     0.00290
C1645       C  0.01013346  0.79179273  0.50498030     0.00290
C1646       C  0.99577613  0.75062775  0.47510777     0.00290
C1647       C  0.76406903  0.51945063  0.48826348     0.00290
C1648       C  0.71979180  0.99223716  0.51067527     0.00290
C1649       C  0.54224406  0.01439633  0.48432725     0.02010
C1650       C  0.99549307  0.96969207  0.47856959     0.02010
C1651       C  0.94943389  0.96939763  0.48003115     0.02010
C1652       C  0.95091556  0.01640712  0.47901340     0.02010
C1653       C  0.99837829  0.56270014  0.47963795     0.02010
C1654       C  0.54356058  0.56130845  0.48670253     0.02010
C1655       C  0.75959928  0.77272785  0.48379919     0.00290
C1656       C  0.72901445  0.75351042  0.52027797     0.00290
Zr1657     Zr  0.97191810  0.50562166  0.91135253     2.17510
O1658       O  0.95822009  0.51458530  0.83203012    -0.51600
O1659       O  0.50616871  0.46128734  0.86238905    -0.74810
O1660       O  0.51354545  0.58974822  0.88236646    -0.81590
O1661       O  0.85041273  0.89458173  0.93044630    -0.83340
O1662       O  0.58009708  0.63716865  0.92921626    -0.78960
O1663       O  0.88540895  0.96377442  0.89023456    -0.90600
O1664       O  0.55225268  0.94211742  0.90731184    -0.76560
O1665       O  0.54579771  0.52762344  0.95112631    -0.86050
O1666       O  0.95723221  0.93257300  0.94881383    -0.85740
O1667       O  0.49007823  0.57393208  0.96508288    -0.72500
O1668       O  0.90687478  0.48746385  0.96322303    -0.84630
Zr1669     Zr  0.49161318  0.50624412  0.08995059     2.26420
Zr1670     Zr  0.56561984  0.59662717  0.00283368     2.06270
Zr1671     Zr  0.89509124  0.91750526  0.00278567     2.10050
Zr1672     Zr  0.53478766  0.95585070  0.98443845     1.78760
O1673       O  0.81350638  0.90232664  0.02048980    -0.93440
O1674       O  0.62424897  0.50073556  0.98229900    -0.41240
O1675       O  0.97240131  0.93967158  0.03671404    -0.77880
O1676       O  0.55557519  0.52350871  0.03801963    -0.96560
O1677       O  0.50314719  0.57847630  0.05456954    -0.89870
O1678       O  0.91340700  0.48337351  0.05657305    -0.92710
C1679       C  0.53673180  0.94494950  0.86811404     1.01040
C1680       C  0.85166070  0.91888859  0.89592367     1.13970
C1681       C  0.55627034  0.62783457  0.89097400     1.04750
O1682       O  0.65427369  0.65185063  0.99763940    -0.94860
O1683       O  0.61213095  0.61435804  0.07559976    -0.90610
O1684       O  0.56913141  0.56075576  0.12874632    -0.83750
C1685       C  0.60725578  0.59956395  0.11623500     1.11390
O1686       O  0.91238757  0.58780525  0.95012764    -0.96840
Zr1687     Zr  0.92650601  0.55381225  0.01700122     1.88940
O1688       O  0.96607865  0.55692882  0.13431263    -0.73490
O1689       O  0.55729248  0.66834764  0.02234177    -0.52750
O1690       O  0.90473382  0.61851168  0.01430447    -0.97430
O1691       O  0.84098666  0.50407923  0.03836342    -0.54650
O1692       O  0.94924007  0.60202732  0.08699118    -0.74000
C1693       C  0.95583124  0.59118278  0.12642265     0.98340
O1694       O  0.50188123  0.97513345  0.16046873    -0.62820
O1695       O  0.86321511  0.82912766  0.99413881    -0.57630
O1696       O  0.94629154  0.92569775  0.12276288    -0.94310
O1697       O  0.88194730  0.87753159  0.07476651    -0.92740
O1698       O  0.50965010  0.86819275  0.97433933    -0.93090
O1699       O  0.56809834  0.92724974  0.04244292    -0.91880
C1700       C  0.90563534  0.88591930  0.11257704     1.17180
H1701       H  0.94643808  0.90438006  0.92786674     0.33130
H1702       H  0.58497292  0.52932075  0.05394843     0.43980
H1703       H  0.88901068  0.97347584  0.07925010     0.37500
H1704       H  0.49375075  0.60351813  0.95222807     0.33980
H1705       H  0.63153084  0.01102887  0.95113192     0.25770
H1706       H  0.57051648  0.68972000  0.99637264     0.31710
H1707       H  0.87364980  0.60568786  0.03033898     0.37620
H1708       H  0.53970536  0.86799339  0.96539347     0.32080
H1709       H  0.85916214  0.82388794  0.96123622     0.30960
H1710       H  0.79091265  0.87744021  0.99731033     0.32640
H1711       H  0.82297294  0.51842207  0.02368203     0.31600
H1712       H  0.56948420  0.94657716  0.07000585     0.35600
H1713       H  0.53331630  0.97536494  0.15786616     0.28340
H1714       H  0.99036203  0.53157650  0.81749505     0.32570
H1715       H  0.90633741  0.56320863  0.92534234     0.35420
H1716       H  0.89102563  0.82443716  0.00255559     0.28030
H1717       H  0.50797630  0.00141209  0.18351986     0.40900
H1718       H  0.66910395  0.63155431  0.00590616     0.30960
H1719       H  0.63571062  0.53256344  0.99956708     0.38570
H1720       H  0.84153872  0.51309699  0.07058287     0.30420
H1721       H  0.52176663  0.65707755  0.02079489     0.30490
H1722       H  0.94483856  0.53733572  0.83047885     0.30750
Zr1723     Zr  0.65121122  0.83703302  0.75730805     2.17510
O1724       O  0.65351104  0.82282157  0.83760314    -0.51600
O1725       O  0.60196670  0.76029814  0.79716029    -0.74810
O1726       O  0.60686797  0.87586462  0.78775147    -0.81590
O1727       O  0.77837783  0.86282572  0.75374932    -0.83340
O1728       O  0.54394803  0.84624669  0.73641089    -0.78960
O1729       O  0.73121814  0.88920628  0.78841002    -0.90600
O1730       O  0.59041837  0.69572266  0.75194560    -0.76560
O1731       O  0.58210001  0.77889720  0.71335031    -0.86050
O1732       O  0.67827466  0.78653238  0.72102871    -0.85740
O1733       O  0.63710474  0.88665512  0.70604883    -0.72500
O1734       O  0.72003102  0.88790936  0.71125948    -0.84630
Zr1735     Zr  0.65871002  0.83326578  0.57980547     2.26420
Zr1736     Zr  0.56700709  0.82765821  0.66176447     2.06270
Zr1737     Zr  0.74509915  0.83656181  0.67257814     2.10050
Zr1738     Zr  0.60918512  0.72824968  0.67715412     1.78760
O1739       O  0.82640406  0.90435372  0.65702403    -0.93440
O1740       O  0.52251127  0.67637036  0.65422908    -0.41240
O1741       O  0.67339093  0.78085892  0.62886773    -0.77880
O1742       O  0.59173804  0.77471529  0.62398337    -0.96560
O1743       O  0.63339029  0.88378915  0.61737095    -0.89870
O1744       O  0.73150698  0.88883800  0.62313399    -0.92710
C1745       C  0.58666704  0.71386060  0.78966690     1.01040
C1746       C  0.76954665  0.88558710  0.78686723     1.13970
C1747       C  0.56516744  0.86931331  0.77426661     1.04750
O1748       O  0.48110685  0.76245012  0.65304256    -0.94860
O1749       O  0.52958174  0.79258303  0.58417108    -0.90610
O1750       O  0.59012443  0.82192137  0.53474924    -0.83750
C1751       C  0.54505432  0.80141404  0.54370021     1.11390
O1752       O  0.72365470  0.99003485  0.73104792    -0.96840
Zr1753     Zr  0.70499971  0.93871422  0.66209124     1.88940
O1754       O  0.69587787  0.91033177  0.53695732    -0.73490
O1755       O  0.55966779  0.90361371  0.66716172    -0.52750
O1756       O  0.66210339  0.98384532  0.65137081    -0.97430
O1757       O  0.78604850  0.01155018  0.67799421    -0.54650
O1758       O  0.71753635  0.97375949  0.58795621    -0.74000
C1759       C  0.71242675  0.95675010  0.54725941     0.98340
O1760       O  0.64262165  0.78596580  0.50823771    -0.62820
O1761       O  0.79455133  0.79668584  0.67761862    -0.57630
O1762       O  0.71109025  0.81326738  0.54253486    -0.94310
O1763       O  0.74121819  0.78836536  0.59912097    -0.92740
O1764       O  0.66336180  0.70746630  0.63583018    -0.93090
O1765       O  0.59322959  0.64490329  0.69483230    -0.91880
C1766       C  0.72959931  0.78832971  0.55666849     1.17180
H1767       H  0.68697144  0.77032404  0.74320470     0.33130
H1768       H  0.56683116  0.74949866  0.60386305     0.43980
H1769       H  0.75883803  0.90743972  0.60418626     0.37500
H1770       H  0.63261378  0.91185899  0.72085027     0.33980
H1771       H  0.51472070  0.64135074  0.65186899     0.25770
H1772       H  0.52466955  0.89305578  0.67014033     0.31710
H1773       H  0.68898394  0.01799754  0.64589426     0.37620
H1774       H  0.66664153  0.68161094  0.65126092     0.32080
H1775       H  0.80834499  0.80339396  0.70863763     0.30960
H1776       H  0.84929178  0.89883766  0.67570935     0.32640
H1777       H  0.78829326  0.03760119  0.65832357     0.31600
H1778       H  0.55753287  0.62289682  0.69877679     0.35600
H1779       H  0.60853854  0.75762741  0.50880171     0.28340
H1780       H  0.63217416  0.83341457  0.85246553     0.32570
H1781       H  0.72464936  0.02091473  0.72226225     0.35420
H1782       H  0.77080586  0.76046599  0.67510727     0.28030
H1783       H  0.64250770  0.80713211  0.48414220     0.40900
H1784       H  0.48182488  0.73124635  0.64870795     0.30960
H1785       H  0.50511794  0.67767736  0.68109943     0.38570
H1786       H  0.81026697  0.00283468  0.66714166     0.30420
H1787       H  0.57574230  0.92390836  0.69497186     0.30490
H1788       H  0.68686275  0.84480572  0.85099905     0.30750
C1789       C  0.80563702  0.91521845  0.82458629     0.00290
C1790       C  0.81618321  0.89136708  0.85790777     0.00290
C1791       C  0.76811865  0.65500494  0.82137734     0.02010
C1792       C  0.81325643  0.70037836  0.83249020     0.02010
C1793       C  0.85835186  0.69977812  0.83171893     0.02010
C1794       C  0.85896300  0.65431336  0.82861281     0.02010
C1795       C  0.81263011  0.60775110  0.82495973     0.02010
C1796       C  0.76589951  0.60679360  0.81736662     0.02010
C1797       C  0.56095692  0.67912555  0.82629624     0.00290
C1798       C  0.58276320  0.65736929  0.85184061     0.00290
C1799       C  0.56001193  0.93217549  0.82816814     0.00290
C1800       C  0.53786823  0.88543568  0.80539049     0.00290
C1801       C  0.94014040  0.67296464  0.86774648    -0.06050
C1802       C  0.90932437  0.65665340  0.82837617    -0.00130
C1803       C  0.93124793  0.65181385  0.78851523    -0.08700
C1804       C  0.97728416  0.65356904  0.79136670    -0.06070
C1805       C  0.00781843  0.66882739  0.83091055    -0.00140
C1806       C  0.98975205  0.68295790  0.86880155    -0.08610
C1807       C  0.02236195  0.71484335  0.90855750     0.61770
H1808       H  0.92678996  0.68219673  0.89749385     0.12470
H1809       H  0.99176592  0.64729475  0.76071490     0.12480
C1810       C  0.91336258  0.65500925  0.74179886     0.62010
F1811       F  0.02677260  0.76126018  0.90768218    -0.23160
F1812       F  0.06943583  0.72258608  0.90845221    -0.20490
F1813       F  0.00111030  0.69311872  0.94804095    -0.20170
F1814       F  0.94552830  0.70152885  0.72656291    -0.20220
F1815       F  0.86668717  0.64863835  0.74030090    -0.20540
F1816       F  0.91372971  0.62003546  0.71251448    -0.23210
C1817       C  0.66795864  0.69222373  0.81420968    -0.06050
C1818       C  0.63116368  0.65666836  0.84129554    -0.00130
C1819       C  0.64338786  0.62086733  0.85845770    -0.08700
C1820       C  0.69038346  0.62817637  0.85517019    -0.06070
C1821       C  0.72173291  0.65713862  0.82372458    -0.00140
C1822       C  0.70937810  0.68883925  0.80081526    -0.08610
C1823       C  0.73564553  0.71680501  0.76047506     0.61770
H1824       H  0.66581659  0.72326470  0.80287571     0.12470
H1825       H  0.70245016  0.60840029  0.87650529     0.12480
C1826       C  0.61292355  0.57607262  0.88441810     0.62010
F1827       F  0.70228705  0.70094454  0.72475678    -0.23160
F1828       F  0.77365835  0.70940792  0.74817591    -0.20490
F1829       F  0.75365368  0.76678543  0.76923968    -0.20170
F1830       F  0.56485281  0.55266053  0.87001351    -0.20220
F1831       F  0.62251014  0.59100771  0.92893374    -0.20540
F1832       F  0.62646735  0.54079228  0.87908004    -0.23210
C1833       C  0.62468697  0.50702687  0.78704960    -0.06050
C1834       C  0.61373185  0.47067947  0.81901879    -0.00130
C1835       C  0.65447260  0.47498748  0.84399250    -0.08700
C1836       C  0.70206484  0.51655408  0.83896475    -0.06070
C1837       C  0.71415947  0.55644983  0.81063238    -0.00140
C1838       C  0.67344597  0.54811319  0.78122804    -0.08610
C1839       C  0.67839502  0.57934254  0.74170994     0.61770
H1840       H  0.59447237  0.50358824  0.76632322     0.12470
H1841       H  0.72926643  0.51670252  0.85945568     0.12480
C1842       C  0.65115564  0.93811044  0.87791987     0.62010
F1843       F  0.65776933  0.54881187  0.70381510    -0.23160
F1844       F  0.72680077  0.61304419  0.73336838    -0.20490
F1845       F  0.65227286  0.60347425  0.74874673    -0.20170
F1846       F  0.68390391  0.92267173  0.86673552    -0.20220
F1847       F  0.60493274  0.89656864  0.87993956    -0.20540
F1848       F  0.66497027  0.96142175  0.92007478    -0.23210
C1849       C  0.91879119  0.76414670  0.78482046    -0.06050
C1850       C  0.90560673  0.74752763  0.82822544    -0.00130
C1851       C  0.93419002  0.77886202  0.86541752    -0.08700
C1852       C  0.97719068  0.82421344  0.85731702    -0.06070
C1853       C  0.98768756  0.84276047  0.81408942    -0.00140
C1854       C  0.95437426  0.81351438  0.77789127    -0.08610
C1855       C  0.95029854  0.83502968  0.73381643     0.61770
H1856       H  0.89506100  0.74139714  0.75666597     0.12470
H1857       H  0.00205328  0.84561673  0.88517085     0.12480
C1858       C  0.91977406  0.76854826  0.91367762     0.62010
F1859       F  0.90246310  0.82253037  0.72436370    -0.23160
F1860       F  0.96267231  0.81500684  0.69871006    -0.20490
F1861       F  0.97929599  0.88642790  0.73493619    -0.20170
F1862       F  0.95541427  0.76574652  0.93857847    -0.20220
F1863       F  0.87544013  0.72537058  0.91871085    -0.20540
F1864       F  0.91624098  0.80797522  0.93088019    -0.23210
C1865       C  0.82547459  0.54174684  0.78962828    -0.06050
C1866       C  0.81523219  0.56092338  0.82818110    -0.00130
C1867       C  0.81282355  0.53828245  0.86945748    -0.08700
C1868       C  0.81013786  0.49094390  0.86832028    -0.06070
C1869       C  0.81795732  0.46995863  0.82846749    -0.00140
C1870       C  0.83140802  0.49981842  0.79005003    -0.08610
C1871       C  0.85237732  0.48861015  0.74892508     0.61770
H1872       H  0.82979658  0.56051913  0.75876444     0.12470
H1873       H  0.80105973  0.96992790  0.89836313     0.12480
C1874       C  0.81037076  0.56291550  0.91389820     0.62010
F1875       F  0.87731389  0.52978534  0.72354653    -0.23160
F1876       F  0.81514107  0.45180598  0.72252173    -0.20490
F1877       F  0.88562133  0.47441750  0.76053309    -0.20170
F1878       F  0.77016342  0.56936751  0.91581765    -0.20220
F1879       F  0.85118880  0.60967991  0.91972371    -0.20540
F1880       F  0.80856219  0.53501258  0.94957589    -0.23210
C1881       C  0.78459667  0.80209314  0.87894274    -0.06050
C1882       C  0.81095472  0.84093128  0.84955979    -0.00130
C1883       C  0.84243828  0.83560250  0.81987948    -0.08700
C1884       C  0.83817625  0.78867897  0.81339468    -0.06070
C1885       C  0.81362019  0.74959551  0.84268623    -0.00140
C1886       C  0.78835719  0.75830885  0.87837976    -0.08610
C1887       C  0.76523060  0.72391021  0.91689657     0.61770
H1888       H  0.76382612  0.80767767  0.90482563     0.12470
H1889       H  0.85284777  0.78226672  0.78374574     0.12480
C1890       C  0.88396263  0.87921180  0.79723725     0.62160
F1891       F  0.71531739  0.70646304  0.91623976    -0.23160
F1892       F  0.77352359  0.68434472  0.91584962    -0.20490
F1893       F  0.78416551  0.74962418  0.95739059    -0.20170
F1894       F  0.89534472  0.92460404  0.81508555    -0.20220
F1895       F  0.87326016  0.87770871  0.75210609    -0.20540
F1896       F  0.92626841  0.87825054  0.80406280    -0.23210
C1897       C  0.63606523  0.61922806  0.47945366    -0.06050
C1898       C  0.59173210  0.60896775  0.49927081    -0.00130
C1899       C  0.59613553  0.64320259  0.53420132    -0.08700
C1900       C  0.63890135  0.69107913  0.53784280    -0.06070
C1901       C  0.68267535  0.70122825  0.51705290    -0.00140
C1902       C  0.68132035  0.65911785  0.49668557    -0.08610
C1903       C  0.71906340  0.64619117  0.51127213     0.61770
H1904       H  0.63667811  0.59293236  0.45539422     0.12470
H1905       H  0.63851606  0.71905397  0.55979326     0.12480
C1906       C  0.56143235  0.62972675  0.57225607     0.62010
F1907       F  0.69924723  0.61010170  0.54217664    -0.23160
F1908       F  0.75896141  0.68589681  0.53299667    -0.20490
F1909       F  0.73306079  0.62869421  0.47484820    -0.20170
F1910       F  0.51974734  0.58342468  0.56771441    -0.20220
F1911       F  0.04872126  0.66582899  0.57742713    -0.20540
F1912       F  0.58545192  0.62894983  0.61049679    -0.23210
C1913       C  0.81414021  0.87105877  0.50800371    -0.06050
C1914       C  0.80667049  0.82592345  0.48625241    -0.00130
C1915       C  0.85111967  0.82960453  0.47424326    -0.08700
C1916       C  0.88862814  0.87588208  0.45961466    -0.06070
C1917       C  0.89966331  0.91997876  0.48412142    -0.00140
C1918       C  0.86291702  0.91294229  0.51521982    -0.08610
C1919       C  0.87747652  0.93209868  0.56339003     0.61770
H1920       H  0.78572769  0.87373826  0.52451626     0.12470
H1921       H  0.91462580  0.87565011  0.43752488     0.12480
C1922       C  0.87019428  0.80761433  0.50763265     0.62010
F1923       F  0.87063917  0.89311595  0.58906492    -0.23160
F1924       F  0.84783958  0.94930330  0.57929480    -0.20490
F1925       F  0.92627117  0.96900207  0.56907206    -0.20170
F1926       F  0.90047030  0.79493360  0.48615318    -0.20220
F1927       F  0.83416900  0.76728460  0.52852519    -0.20540
F1928       F  0.89554916  0.84211827  0.54178427    -0.23210
C1929       C  0.88674210  0.02625166  0.52094135    -0.06050
C1930       C  0.90218112  0.01630408  0.47994028    -0.00130
C1931       C  0.86849808  0.50134575  0.44269114    -0.08700
C1932       C  0.82197986  0.49790555  0.44831868    -0.06070
C1933       C  0.80809398  0.51119092  0.48931277    -0.00140
C1934       C  0.84280633  0.02745616  0.52566369    -0.08610
C1935       C  0.83248035  0.04108322  0.57138286     0.61770
H1936       H  0.90921006  0.03225424  0.55068188     0.12470
H1937       H  0.79626205  0.48562496  0.41997511     0.12480
C1938       C  0.88114304  0.48832578  0.39724113     0.62010
F1939       F  0.87503999  0.06908880  0.59759591    -0.23160
F1940       F  0.80435666  0.99734556  0.59173816    -0.20490
F1941       F  0.80817494  0.06766422  0.56906419    -0.20170
F1942       F  0.87682913  0.44196067  0.39750547    -0.20220
F1943       F  0.92881007  0.52309319  0.38718014    -0.20540
F1944       F  0.85011167  0.48724609  0.36340562    -0.23210
C1945       C  0.65480355  0.51134827  0.53876132    -0.06050
C1946       C  0.67481364  0.99832521  0.50223134    -0.00130
C1947       C  0.64636286  0.98381409  0.46138522    -0.08700
C1948       C  0.60793902  0.99506993  0.45598744    -0.06070
C1949       C  0.58871926  0.00984056  0.49221266    -0.00140
C1950       C  0.61121201  0.51435857  0.53525566    -0.08610
C1951       C  0.59072494  0.52087112  0.57899563     0.61770
H1952       H  0.67343041  0.51935404  0.57112267     0.12470
H1953       H  0.59143269  0.99019317  0.42305168     0.12480
C1954       C  0.64893687  0.94884699  0.42602113     0.62010
F1955       F  0.58350761  0.48314436  0.60664848    -0.23160
F1956       F  0.54621296  0.51865770  0.57353217    -0.20490
F1957       F  0.62390950  0.56609461  0.60011611    -0.20170
F1958       F  0.60764022  0.90238791  0.42839985    -0.20220
F1959       F  0.68906025  0.94265629  0.43158507    -0.20540
F1960       F  0.64965954  0.96558049  0.38367786    -0.23210
C1961       C  0.97863339  0.62678748  0.51092830    -0.06050
C1962       C  0.00110281  0.61337165  0.47745359    -0.00130
C1963       C  0.52848832  0.65048360  0.44611060    -0.08700
C1964       C  0.53176064  0.69787619  0.45060571    -0.06070
C1965       C  0.00601205  0.70899160  0.48319707    -0.00140
C1966       C  0.97772084  0.67133088  0.51305336    -0.08610
C1967       C  0.94203007  0.67255077  0.54586457     0.61770
H1968       H  0.96355116  0.60368236  0.53854024     0.12470
H1969       H  0.55179291  0.72541008  0.42608109     0.12480
C1970       C  0.55400059  0.64248525  0.40670467     0.62010
F1971       F  0.95271608  0.66342586  0.58832883    -0.23160
F1972       F  0.89535042  0.63563693  0.53244546    -0.20490
F1973       F  0.94177648  0.71636435  0.54849729    -0.20170
F1974       F  0.54482712  0.59424616  0.40146675    -0.20220
F1975       F  0.60414110  0.67451523  0.41239133    -0.20540
F1976       F  0.53806647  0.65322608  0.36751867    -0.23210
C1977       C  0.00614156  0.85360669  0.45354989    -0.06050
C1978       C  0.00031364  0.83455586  0.49679208    -0.00130
C1979       C  0.49013522  0.86075611  0.53181476    -0.08700
C1980       C  0.49101438  0.90494477  0.52355814    -0.06070
C1981       C  0.99620915  0.92263289  0.48142577    -0.00140
C1982       C  0.00445497  0.89749000  0.44542792    -0.08610
C1983       C  0.00527444  0.91220800  0.39770063     0.61770
H1984       H  0.01345399  0.83501709  0.42606536     0.12470
H1985       H  0.48653720  0.92635261  0.55053585     0.12480
C1986       C  0.48234672  0.84716482  0.57962162     0.62010
F1987       F  0.96164587  0.87710530  0.37811351    -0.23160
F1988       F  0.04351702  0.91251821  0.37534024    -0.20490
F1989       F  0.00864658  0.95795085  0.39334996    -0.20170
F1990       F  0.52859901  0.86551879  0.59703815    -0.20220
F1991       F  0.45245965  0.79652684  0.58305759    -0.20540
F1992       F  0.46114660  0.86965807  0.60419424    -0.23210
C1993       C  0.65726536  0.75628674  0.19579517    -0.06050
C1994       C  0.65096573  0.77465214  0.15699692    -0.00130
C1995       C  0.64725843  0.75022463  0.11584155    -0.08700
C1996       C  0.65313764  0.70829511  0.11644554    -0.06070
C1997       C  0.65373547  0.68482147  0.15683047    -0.00140
C1998       C  0.65341774  0.71041207  0.19765234    -0.08610
C1999       C  0.65926527  0.69837222  0.24412847     0.61770
H2000       H  0.66660353  0.77957032  0.22548632     0.12470
H2001       H  0.65845748  0.69530525  0.08456196     0.12480
C2002       C  0.63800301  0.76847916  0.07190935     0.62010
F2003       F  0.65031940  0.72392218  0.27753513    -0.23160
F2004       F  0.70870608  0.71557557  0.24936510    -0.20490
F2005       F  0.62659897  0.64875348  0.25017257    -0.20170
F2006       F  0.66318549  0.81985997  0.07067048    -0.20220
F2007       F  0.58859957  0.75247124  0.06719032    -0.20540
F2008       F  0.65194414  0.75029506  0.03554797    -0.23210
C2009       C  0.64363133  0.98029405  0.19894276    -0.06050
C2010       C  0.66467033  0.96867707  0.16227724    -0.00130
C2011       C  0.67856253  0.00153461  0.12602148    -0.08700
C2012       C  0.67697114  0.54681866  0.13127149    -0.06070
C2013       C  0.65649838  0.55753974  0.16913750    -0.00140
C2014       C  0.63494646  0.02063870  0.20081175    -0.08610
C2015       C  0.60098948  0.02200285  0.23598914     0.61770
H2016       H  0.63406721  0.95750590  0.22710542     0.12470
H2017       H  0.69216923  0.57436006  0.10595778     0.12480
C2018       C  0.69309735  0.98833400  0.08158062     0.62010
F2019       F  0.55766891  0.97709763  0.23505326    -0.23160
F2020       F  0.58804303  0.05742677  0.22848766    -0.20490
F2021       F  0.62260973  0.03118802  0.27818263    -0.20170
F2022       F  0.65773032  0.94077687  0.06666368    -0.20220
F2023       F  0.73750183  0.99005273  0.08575477    -0.20540
F2024       F  0.69758443  0.52101116  0.04915485    -0.23210
C2025       C  0.51980165  0.69477765  0.20656266    -0.06050
C2026       C  0.48681021  0.67501871  0.16951460    -0.00130
C2027       C  0.48840529  0.70885085  0.13812201    -0.08700
C2028       C  0.52984453  0.75752631  0.13841501    -0.06070
C2029       C  0.56483162  0.77768196  0.17430872    -0.00140
C2030       C  0.55605972  0.74616348  0.21125189    -0.08610
C2031       C  0.57755378  0.76598306  0.25812529     0.61770
H2032       H  0.51561807  0.66994567  0.23295758     0.12470
H2033       H  0.53467654  0.77960810  0.10983916     0.12480
C2034       C  0.94528294  0.69767485  0.10714838     0.62010
F2035       F  0.54611585  0.77605141  0.28068402    -0.23160
F2036       F  0.62296794  0.80872422  0.25913070    -0.20490
F2037       F  0.58041142  0.73038326  0.28189180    -0.20170
F2038       F  0.92902551  0.72966639  0.11979000    -0.20220
F2039       F  0.90536583  0.65029281  0.10958177    -0.20540
F2040       F  0.96014797  0.70517656  0.06334846    -0.23210
C2041       C  0.81880988  0.54994444  0.16099049    -0.06050
C2042       C  0.86222647  0.54977584  0.17205676    -0.00130
C2043       C  0.85616650  0.00172505  0.17452066    -0.08700
C2044       C  0.80997710  0.96049070  0.15881034    -0.06070
C2045       C  0.76498362  0.96169507  0.16339956    -0.00140
C2046       C  0.77424318  0.00986160  0.17471926    -0.08610
C2047       C  0.76051833  0.01851188  0.22057729     0.61770
H2048       H  0.82046674  0.58378129  0.15335317     0.12470
H2049       H  0.81185921  0.92973278  0.14450824     0.12480
C2050       C  0.89292216  0.99137271  0.19782899     0.62010
F2051       F  0.80096668  0.53602618  0.24949664    -0.23160
F2052       F  0.72400071  0.97498853  0.23745697    -0.20490
F2053       F  0.74611827  0.05348407  0.21878655    -0.20170
F2054       F  0.87151966  0.96239228  0.23386573    -0.20220
F2055       F  0.93462770  0.03374881  0.21460813    -0.20540
F2056       F  0.90629252  0.96585330  0.16843828    -0.23210
C2057       C  0.54056303  0.86369502  0.12703217    -0.06050
C2058       C  0.56822466  0.87448396  0.16763913    -0.00130
C2059       C  0.54440928  0.87651319  0.20730333    -0.08700
C2060       C  0.49666732  0.87008321  0.20410648    -0.06070
C2061       C  0.46618658  0.85180351  0.16506771    -0.00140
C2062       C  0.48934165  0.84800634  0.12530876    -0.08610
C2063       C  0.46177508  0.82477875  0.08110634     0.61770
H2064       H  0.55783660  0.86145180  0.09663508     0.12470
H2065       H  0.98140947  0.87527000  0.23434532     0.12480
C2066       C  0.56340366  0.87888996  0.25474533     0.62010
F2067       F  0.48034716  0.79825719  0.05928557    -0.23160
F2068       F  0.46728685  0.86139808  0.05376368    -0.20490
F2069       F  0.41251998  0.79292857  0.08654588    -0.20170
F2070       F  0.57001773  0.92020939  0.27931392    -0.20220
F2071       F  0.60684054  0.87842772  0.25685967    -0.20540
F2072       F  0.52775747  0.83845926  0.27515161    -0.23210
C2073       C  0.75636124  0.83253883  0.12783000    -0.06050
C2074       C  0.74804705  0.85408579  0.16674962    -0.00130
C2075       C  0.77989397  0.86206139  0.20504494    -0.08700
C2076       C  0.82193448  0.85584208  0.19964899    -0.06070
C2077       C  0.83074200  0.83685254  0.15921008    -0.00140
C2078       C  0.79307576  0.81926957  0.12526055    -0.08610
C2079       C  0.78889756  0.78476858  0.08612245     0.61770
H2080       H  0.73407845  0.82586805  0.09811812     0.12470
H2081       H  0.84958920  0.86813498  0.22647844     0.12480
C2082       C  0.77198068  0.87981900  0.25069089     0.62010
F2083       F  0.74716314  0.73914759  0.08979328    -0.23160
F2084       F  0.82751083  0.77607846  0.08503165    -0.20490
F2085       F  0.78555588  0.80407903  0.04606983    -0.20170
F2086       F  0.72645520  0.84651445  0.26599788    -0.20220
F2087       F  0.77507194  0.92544565  0.24813453    -0.20540
F2088       F  0.80662416  0.88454846  0.28259691    -0.23210
loop_ 
_geom_bond_atom_site_label_1 
_geom_bond_atom_site_label_2 
_geom_bond_distance 
_geom_bond_site_symmetry_2 
_ccdc_geom_bond_type 
Zr1           O2   2.455       .  S
Zr1           O3   2.512       .  S
Zr1           O4   2.398       .  S
Zr1           O7   2.417       .  S
Zr1           O9   2.368       .  S
Zr1          O10   2.362       .  S
Zr1          O11   2.440       .  S
Zr1          O12   2.414       .  S
O2           H58   0.985       .  S
O2           H66   0.983       .  S
O3           C23   1.291       .  A
O4           C25   1.276       .  A
O5          Zr15   2.496       .  S
O5           C24   1.295       .  A
O6          Zr14   2.588       .  S
O6           C25   1.313       .  A
O7           C24   1.271       .  A
O8          Zr16   2.385       .  S
O8           C23   1.267       .  A
O9          Zr14   2.415       .  S
O9          Zr16   2.359       .  S
O10         Zr15   2.392       .  S
O10         Zr16   2.367       .  S
O10          H45   0.965       .  S
O11         Zr14   2.399       .  S
O11         Zr31   2.390       .  S
O11          H48   0.956       .  S
O12         Zr15   2.382       .  S
O12         Zr31   2.406       .  S
Zr13         O38   2.456       .  S
Zr13         O32   2.454       .  S
Zr13         O40   2.378       .  S
Zr13         O28   2.397       .  S
Zr13         O19   2.424       .  S
Zr13         O20   2.419       .  S
Zr13         O21   2.365       .  S
Zr13         O22   2.363       .  S
Zr14         O33   2.459       .  S
Zr14         O26   2.434       .  S
Zr14         O27   2.599       .  S
Zr14         O20   2.442       .  S
Zr14         O21   2.421       .  S
Zr15         O17   2.417       .  S
Zr15         O39   2.433       .  S
Zr15         O41   2.456       .  S
Zr15         O19   2.399       .  S
Zr15         O22   2.437       .  S
Zr16         O42   2.439       .  S
Zr16         O43   2.422       .  S
Zr16         O18   2.448       .  S
Zr16         O19   2.426       .  S
Zr16         O20   2.350       .  S
O17          H54   0.989       .  S
O18          H49   0.985       .  S
O18          H63   0.990       .  S
O20          H46   0.960       .  S
O21         Zr31   2.374       .  S
O22         Zr31   2.363       .  S
O22          H47   0.967       .  S
C23          C81   1.499       .  S
C24          C80   1.494       .  S
C25          C89   1.541       .  S
O26          H62   0.990       .  S
O27          C29   1.316       .  A
O28          C29   1.264       .  A
C29          C73   1.516       .  S
O30         Zr31   2.441       .  S
O30          H59   0.990       .  S
Zr31         O34   2.452       .  S
Zr31         O35   2.445       .  S
Zr31         O36   2.429       .  S
O32          C37   1.278       .  A
O33          H50   0.989       .  S
O33          H65   0.989       .  S
O34          H51   0.990       .  S
O35          H55   0.981       .  S
O35          H64   0.990       .  S
O36          C37   1.274       .  A
C37          C75   1.502       .  S
O38          H57   0.990       .  S
O38          H61   0.991       .  S
O39          H53   0.990       .  S
O39          H60   0.990       .  S
O40          C44   1.271       .  A
O41          C44   1.285       .  A
O42          H52   0.990   1_545  S
O43          H56   0.983       .  S
C44          C77   1.485       .  S
C67          C68   1.455       .  A
C67          C72   1.426       .  A
C67         C508   1.565       .  S
C68          C69   1.512       .  A
C68         C479   1.571       .  S
C69          C70   1.471       .  A
C69         C444   1.551       .  S
C70          C71   1.424       .  A
C70         C492   1.541       .  S
C71          C72   1.415       .  A
C71         C463   1.544       .  S
C72         C428   1.460       .  S
C73         C447   1.527       .  S
C73          C74   1.402       .  D
C74         C119   1.512       .  S
C74         C431   1.545       .  S
C75        C1539   1.553       .  S
C75          C76   1.394       .  D
C76         C134   1.493       .  S
C76         C511   1.541       .  S
C77         C476   1.524       .  S
C77          C78   1.370       .  D
C78         C127   1.488       .  S
C78        C1504   1.513       .  S
C79         C412   1.535       .  S
C79        C1229   1.498       .  S
C79          C80   1.403       .  D
C80         C399   1.509       .  S
C81         C367   1.532       .  S
C81         C604   1.408   1_545  D
C82         C193   1.513       .  S
C82         C380   1.539       .  S
C82         C603   1.408       .  D
C83        C1128   1.430   1_455  A
C83         C610   1.438       .  A
C83         C383   1.556       .  S
C84          C85   1.448       .  A
C84        C1127   1.430       .  A
C84         C415   1.480       .  S
C85          C86   1.440       .  A
C85         C351   1.557       .  S
C86         C609   1.462       .  A
C86         C364   1.534       .  S
C87         C608   1.462       .  A
C87        C1132   1.458       .  A
C87         C396   1.538       .  S
C88         C605   1.438       .  A
C88        C1131   1.458   1_455  A
C88         C332   1.523       .  S
C89         C348   1.568       .  S
C89          C90   1.401       .  D
C90         C200   1.502       .  S
C90         C335   1.542       .  S
Zr91         O92   2.449       .  S
Zr91       O1137   2.572   1_545  S
Zr91       O1138   2.456       .  S
Zr91        O619   2.416   1_545  S
Zr91        O102   2.428   1_545  S
Zr91       O1143   2.357       .  S
Zr91        O622   2.396   1_545  S
Zr91       O1145   2.437       .  S
O92         H148   0.990       .  S
O92         H156   0.991       .  S
O93       Zr1135   2.572   1_465  S
O93         C635   1.307       .  A
O94       Zr1135   2.456   1_455  S
O94         C115   1.282       .  A
O95        Zr105   2.439   1_556  S
O95         C114   1.286       .  A
O96        Zr104   2.499   1_556  S
O96         C115   1.297       .  A
O97        Zr613   2.416       .  S
O97         C114   1.278       .  A
O98        Zr106   2.448       .  S
O98         C113   1.283       .  A
O99        Zr104   2.405   1_556  S
O99       Zr1135   2.357   1_455  S
O99        Zr628   2.337   1_545  S
O100       Zr105   2.421   1_556  S
O100       Zr613   2.396       .  S
O100      Zr1150   2.390       .  S
O100        H135   0.966       .  S
O101       Zr104   2.368   1_656  S
O101      Zr1135   2.437       .  S
O101      Zr1165   2.386   1_556  S
O101        H138   0.961       .  S
O102       Zr121   2.385   1_566  S
O102       Zr627   2.372   1_556  S
Zr103       O650   2.427   1_645  S
Zr103       O118   2.407   1_655  S
Zr103      O1166   2.461       .  S
Zr103      O1696   2.421   1_545  S
Zr103       O110   2.409   1_655  S
Zr103       O111   2.373   1_655  S
Zr103      O1675   2.382   1_545  S
Zr103      O1156   2.384   1_545  S
Zr104       O123   2.428       .  S
Zr104       O116   2.443   1_554  S
Zr104       O117   2.486       .  S
Zr104       O110   2.410       .  S
Zr104       O111   2.366       .  S
Zr105       O107   2.437       .  S
Zr105       O129   2.407   1_554  S
Zr105       O131   2.451       .  S
Zr105       O109   2.371       .  S
Zr105       O624   2.372   1_554  S
Zr105       O634   2.382       .  S
Zr106       O132   2.432       .  S
Zr106       O133   2.423   1_556  S
Zr106       O630   2.437       .  S
Zr106       O621   2.337       .  S
Zr106      O1144   2.390   1_455  S
Zr106      O1153   2.386   1_456  S
Zr106       O632   2.404   1_556  S
O107        H144   0.990   1_554  S
O108       Zr628   2.437   1_545  S
O108        H153   0.989       .  S
O108        H661   0.985       .  S
O109      Zr1669   2.382       .  S
O109      Zr1150   2.386   1_554  S
O110       Zr628   2.404   1_544  S
O110        H136   0.964       .  S
O111      Zr1165   2.382   1_455  S
O112       Zr121   2.373   1_565  S
O112      Zr1147   2.384   1_565  S
O112       Zr627   2.382       .  S
O112        H659   0.966       .  S
C113        O615   1.307       .  A
C113        C233   1.551       .  S
C114        C224   1.485       .  S
C115        C232   1.492       .  S
O116        H152   0.991   1_556  S
O117        C119   1.294       .  A
O118        C119   1.272       .  A
O120       Zr121   2.424   1_556  S
O120        H149   0.990       .  S
Zr121       O124   2.434       .  S
Zr121       O125   2.443       .  S
Zr121       O126   2.407       .  S
Zr121      O1145   2.386   1_554  S
Zr121      O1155   2.382       .  S
O122      Zr1147   2.461       .  S
O122        C127   1.286       .  A
O123        H140   0.989   1_554  S
O123        H155   0.990       .  S
O124        H141   0.989       .  S
O125        H145   0.986       .  S
O125        H154   0.990       .  S
O126        C127   1.276       .  A
O128       Zr625   2.427   1_455  S
O128        H147   0.991       .  S
O128        H151   0.990       .  S
O129        H143   0.986       .  S
O129        H150   0.988   1_556  S
O130      Zr1669   2.421       .  S
O130        C134   1.277       .  A
O131        C134   1.287       .  A
O132        H142   0.990       .  S
O133        H146   0.990       .  S
H137        O634   0.966       .  S
H139        O630   0.985       .  S
Zr157       O158   2.456       .  S
Zr157       O159   2.453       .  S
Zr157       O160   2.429       .  S
Zr157       O163   2.358       .  S
Zr157       O165   2.351       .  S
Zr157       O166   2.374       .  S
Zr157       O167   2.395       .  S
Zr157       O168   2.421       .  S
O158        H214   0.990       .  S
O158        H222   0.988       .  S
O159        C179   1.282       .  A
O160        C181   1.280       .  A
O161       Zr171   2.563       .  S
O161        C180   1.310       .  A
O162       Zr170   2.492       .  S
O162        C181   1.296       .  A
O163        C180   1.269       .  A
O164       Zr172   2.435       .  S
O164        C179   1.276       .  A
O165       Zr170   2.397       .  S
O165       Zr172   2.376       .  S
O166       Zr171   2.424       .  S
O166       Zr172   2.351       .  S
O166        H201   0.959       .  S
O167       Zr170   2.380       .  S
O167       Zr187   2.375       .  S
O167        H204   0.960       .  S
O168       Zr171   2.384       .  S
O168       Zr187   2.399       .  S
Zr169       O194   2.449       .  S
Zr169       O188   2.482       .  S
Zr169       O196   2.322       .  S
Zr169       O184   2.391       .  S
Zr169       O175   2.430       .  S
Zr169       O176   2.422       .  S
Zr169       O177   2.353       .  S
Zr169       O178   2.386       .  S
Zr170       O189   2.487       .  S
Zr170       O182   2.432   1_455  S
Zr170       O183   2.530       .  S
Zr170       O176   2.406       .  S
Zr170       O177   2.392       .  S
Zr171       O173   2.424       .  S
Zr171       O195   2.437       .  S
Zr171       O197   2.581       .  S
Zr171       O175   2.373       .  S
Zr171       O178   2.416       .  S
Zr172       O198   2.444       .  S
Zr172       O199   2.456       .  S
Zr172       O174   2.441       .  S
Zr172       O175   2.397       .  S
Zr172       O176   2.414       .  S
O173        H210   0.989       .  S
O174        H205   0.988       .  S
O174        H219   0.989       .  S
O176        H202   0.963       .  S
O177       Zr187   2.381       .  S
O178       Zr187   2.382       .  S
O178        H203   0.964       .  S
C179        C231   1.495       .  S
C180        C223   1.499       .  S
C181        C234   1.510       .  S
O182        H218   0.986       .  S
O183        C185   1.294       .  A
O184        C185   1.266       .  A
C185       C1123   1.498       .  S
O186       Zr187   2.436       .  S
O186        H215   0.989       .  S
Zr187       O190   2.414       .  S
Zr187       O191   2.437       .  S
Zr187       O192   2.446       .  S
O188        C193   1.288       .  A
O189        H206   0.985       .  S
O189        H221   0.987       .  S
O190        H207   0.990       .  S
O191        H211   0.990       .  S
O191        H220   0.985       .  S
O192        C193   1.283       .  A
O194        H213   0.989       .  S
O194        H217   0.991       .  S
O195        H209   0.986       .  S
O195        H216   0.989       .  S
O196        C200   1.260       .  A
O197        C200   1.313       .  A
O198        H208   0.987       .  S
O199        H212   0.990       .  S
C223        C825   1.544       .  S
C223        C224   1.391       .  D
C224        C316   1.504       .  S
C225        C226   1.434       .  A
C225        C230   1.466       .  A
C225        C255   1.498       .  S
C226        C227   1.431       .  A
C226        C319   1.545       .  S
C227        C228   1.424       .  A
C227        C284   1.489       .  S
C228        C229   1.447       .  A
C228        C236   1.551       .  S
C229        C230   1.471       .  A
C229        C300   1.505       .  S
C230        C271   1.596       .  S
C231       C1283   1.547       .  S
C231        C232   1.413       .  D
C232        C252   1.572       .  S
C233        C790   1.537       .  S
C233        C234   1.401       .  D
C234       C1331   1.499   1_455  S
C235        C236   1.418       .  A
C235        C240   1.431       .  A
C235        H242   1.079       .  S
C236        C237   1.425       .  A
C237        C238   1.425       .  A
C237        C244   1.520       .  S
C238        C239   1.419       .  A
C238        H243   1.083       .  S
C239       C1275   1.547       .  S
C239        C240   1.426       .  A
C240        C241   1.519       .  S
C241        F245   1.380       .  S
C241        F246   1.377       .  S
C241        F247   1.382       .  S
C244        F248   1.380       .  S
C244        F249   1.381       .  S
C244        F250   1.378       .  S
C251        C252   1.418       .  A
C251        C256   1.423       .  A
C251        H258   1.066       .  S
C252        C253   1.453       .  A
C253        C254   1.385       .  A
C253        C260   1.485       .  S
C254        C255   1.361       .  A
C254        H259   1.087       .  S
C255        C256   1.419       .  A
C256        C257   1.503       .  S
C257        F261   1.376       .  S
C257        F262   1.381       .  S
C257        F263   1.374       .  S
C260        F264   1.363       .  S
C260        F265   1.370       .  S
C260        F266   1.369       .  S
C267        C268   1.411   1_545  A
C267        C272   1.437       .  A
C267        H274   1.084       .  S
C268        C755   1.537       .  S
C268        C269   1.419       .  A
C269        C270   1.417   1_565  A
C269        C798   1.519       .  S
C270        C271   1.414       .  A
C270        H275   1.043       .  S
C271        C272   1.449       .  A
C272        C273   1.511       .  S
C273        F277   1.375       .  S
C273        F278   1.379       .  S
C273        F279   1.379       .  S
C276        C791   1.519       .  S
C276        F280   1.380       .  S
C276        F281   1.380       .  S
C276        F282   1.380       .  S
C283        C284   1.399       .  A
C283        C288   1.396       .  A
C283        H290   1.084       .  S
C284        C285   1.417       .  A
C285        C286   1.410       .  A
C285        C292   1.511       .  S
C286        C287   1.405       .  A
C286        H291   1.080       .  S
C287       C1278   1.499       .  S
C287        C288   1.427       .  A
C288        C289   1.527       .  S
C289        F293   1.375       .  S
C289        F294   1.361       .  S
C289        F295   1.384       .  S
C292        F296   1.378       .  S
C292        F297   1.380       .  S
C292        F298   1.370       .  S
C299        C300   1.394       .  A
C299        C304   1.408   1_545  A
C299        H306   1.079       .  S
C300        C301   1.422       .  A
C301        C302   1.431   1_545  A
C301        C308   1.532       .  S
C302        C303   1.422       .  A
C302        H829   1.081       .  S
C303        C745   1.544       .  S
C303        C304   1.429       .  A
C304        C305   1.514       .  S
C305        F309   1.377   1_565  S
C305        F310   1.367       .  S
C305        F311   1.370       .  S
H307        C824   1.081       .  S
C308        F312   1.380       .  S
C308        F313   1.375       .  S
C308        F314   1.378       .  S
C315        C316   1.412       .  A
C315        C320   1.425       .  A
C315        H322   1.084       .  S
C316        C317   1.406       .  A
C317        C318   1.403       .  A
C317        C324   1.518       .  S
C318        C319   1.407       .  A
C318        H323   1.063       .  S
C319        C320   1.437       .  A
C320        C321   1.521       .  S
C321        F325   1.380       .  S
C321        F326   1.380       .  S
C321        F327   1.375       .  S
C324        F328   1.357       .  S
C324        F329   1.377       .  S
C324        F330   1.360       .  S
C331        C332   1.410       .  A
C331        C336   1.411       .  A
C331        H338   1.078       .  S
C332        C333   1.419       .  A
C333        C334   1.417       .  A
C333        C340   1.505       .  S
C334        C335   1.409       .  A
C334        H339   1.077       .  S
C335        C336   1.406       .  A
C336        C337   1.497       .  S
C337        F341   1.370       .  S
C337        F342   1.373       .  S
C337        F343   1.375       .  S
C340        F344   1.376       .  S
C340        F346   1.367       .  S
C340       F1389   1.374       .  S
F345       C1384   1.374       .  S
C347        C348   1.432       .  A
C347        C352   1.435       .  A
C347        H354   1.066       .  S
C348        C349   1.399       .  A
C349        C350   1.414       .  A
C349        C356   1.504       .  S
C350        C351   1.409       .  A
C350        H355   1.061       .  S
C351        C352   1.427       .  A
C352        C353   1.510       .  S
C353        F357   1.380       .  S
C353        F358   1.372       .  S
C353        F359   1.382       .  S
C356        F360   1.363       .  S
C356        F361   1.373       .  S
C356        F362   1.367       .  S
C363        C364   1.405       .  A
C363        C368   1.412       .  A
C363        H370   1.077       .  S
C364        C887   1.419       .  A
C365        C366   1.427   1_545  A
C365        C886   1.419       .  A
C365        C372   1.518   1_545  S
C366        C367   1.422   1_565  A
C366        H371   1.079       .  S
C367        C890   1.414       .  A
C368        C889   1.414       .  A
C368        C369   1.504       .  S
C369        F373   1.384       .  S
C369        F374   1.363       .  S
C369        F375   1.384       .  S
C372        F376   1.379       .  S
C372        F377   1.383   1_565  S
C372        F378   1.382       .  S
C379        C384   1.425       .  A
C379        C902   1.413   1_545  A
C379        H386   1.077       .  S
C380        C381   1.420       .  A
C380        C901   1.413       .  A
C381        C382   1.428       .  A
C381        C388   1.523       .  S
C382        C383   1.419       .  A
C382        H387   1.075       .  S
C383        C906   1.425       .  A
C384        C905   1.425       .  A
C384        C385   1.517       .  S
C385        F389   1.381   1_545  S
C385        F390   1.376       .  S
C385        F391   1.382       .  S
C388        F392   1.378       .  S
C388        F393   1.380       .  S
C388        F394   1.378       .  S
C395        C396   1.401       .  A
C395        C400   1.399       .  A
C395        H402   1.061       .  S
C396       C1441   1.428       .  A
C397        C398   1.426       .  A
C397       C1440   1.428       .  A
C397        C404   1.517       .  S
C398       C1443   1.417       .  A
C398        H403   1.084       .  S
C399        C400   1.413       .  A
C399       C1442   1.417       .  A
C400        C401   1.515       .  S
C401        F405   1.380       .  S
C401        F406   1.376       .  S
C401        F407   1.366       .  S
C404        F408   1.380       .  S
C404        F409   1.382       .  S
C404        F410   1.381       .  S
C411        C412   1.412       .  A
C411        C416   1.420       .  A
C411        H418   1.081       .  S
C412       C1457   1.441       .  A
C413        C414   1.390       .  A
C413       C1456   1.441   1_655  A
C413        C420   1.489       .  S
C414       C1459   1.367       .  A
C414        H419   1.084       .  S
C415        C416   1.411       .  A
C415       C1458   1.367       .  A
C416        C417   1.506       .  S
C417        F421   1.358       .  S
C417        F422   1.382       .  S
C417        F423   1.383       .  S
C420        F424   1.356   1_655  S
C420        F425   1.377       .  S
C420        F426   1.387       .  S
C427        C428   1.362       .  A
C427        C432   1.373       .  A
C427        H434   1.064       .  S
C428        C429   1.395       .  A
C429        C430   1.407       .  A
C429        C436   1.526       .  S
C430        C431   1.433       .  A
C430        H435   1.070       .  S
C431        C432   1.436       .  A
C432        C433   1.480       .  S
C433        F437   1.374       .  S
C433        F438   1.373       .  S
C433        F439   1.377       .  S
C436        F440   1.382       .  S
C436        F441   1.378       .  S
C436        F442   1.384       .  S
C443        C444   1.415       .  A
C443        C448   1.412       .  A
C443        H450   1.063       .  S
C444        C445   1.428       .  A
C445        C968   1.438       .  A
C445        C452   1.519       .  S
C446        C447   1.420       .  A
C446        C967   1.438       .  A
C446        H451   1.082       .  S
C447        C970   1.405       .  A
C448        C969   1.405       .  A
C448        C449   1.524       .  S
C449        F453   1.374       .  S
C449        F454   1.377       .  S
C449        F455   1.373       .  S
C452        F456   1.382       .  S
C452        F457   1.376       .  S
C452        F980   1.382       .  S
F458        C974   1.382   1_545  S
C459        C460   1.399   1_455  A
C459        C464   1.421       .  A
C459        H466   1.083       .  S
C460       C1122   1.513       .  S
C460        C461   1.413       .  A
C461        C462   1.415   1_655  A
C461       C1512   1.512       .  S
C462        C463   1.407       .  A
C462        H467   1.076       .  S
C463        C464   1.434       .  A
C464        C465   1.513       .  S
C465        F469   1.360       .  S
C465        F470   1.376       .  S
C465        F471   1.373       .  S
C468       C1505   1.512       .  S
C468        F472   1.375       .  S
C468        F473   1.378       .  S
C468        F474   1.381       .  S
C475        C476   1.405       .  A
C475       C1002   1.407       .  A
C475        H482   1.059       .  S
C476        C999   1.412       .  A
C477        C478   1.429       .  A
C477        C998   1.412       .  A
C477        C484   1.515       .  S
C478        C479   1.445       .  A
C478        H483   1.064       .  S
C479        C480   1.403       .  A
C480        C997   1.407       .  A
C480        C481   1.497       .  S
C481        F486   1.378       .  S
C481        F487   1.375       .  S
C481       F1007   1.379       .  S
C484        F488   1.376       .  S
C484        F489   1.381       .  S
C484        F490   1.371       .  S
F485       C1003   1.379       .  S
C491        C492   1.410       .  A
C491        C496   1.431   1_455  A
C491        H498   1.083       .  S
C492        C493   1.427       .  A
C493        C494   1.415   1_455  A
C493        C500   1.513       .  S
C494        C495   1.406       .  A
C494       H1543   1.074       .  S
C495       C1119   1.553       .  S
C495        C496   1.434       .  A
C496        C497   1.513       .  S
C497        F501   1.382       .  S
C497        F502   1.362       .  S
C497        F503   1.372       .  S
H499       C1538   1.074       .  S
C500        F504   1.377       .  S
C500        F505   1.376       .  S
C500        F506   1.363       .  S
C507        C508   1.415       .  A
C507        C512   1.413       .  A
C507        H514   1.070       .  S
C508        C509   1.439       .  A
C509        C510   1.442       .  A
C509        C516   1.524       .  S
C510        C511   1.418       .  A
C510        H515   1.082       .  S
C511        C512   1.417       .  A
C512        C513   1.518       .  S
C513        F517   1.374       .  S
C513        F518   1.373       .  S
C513        F519   1.380       .  S
C516        F520   1.375       .  S
C516        F521   1.377       .  S
C516        F522   1.385       .  S
Zr523       O524   2.455       .  S
Zr523       O525   2.512       .  S
Zr523       O526   2.398       .  S
Zr523       O529   2.417       .  S
Zr523       O531   2.368       .  S
Zr523       O532   2.362       .  S
Zr523       O533   2.440       .  S
Zr523       O534   2.414       .  S
O524        H580   0.985       .  S
O524        H588   0.983       .  S
O525        C545   1.291       .  A
O526        C547   1.276       .  A
O527       Zr537   2.496       .  S
O527        C546   1.295       .  A
O528       Zr536   2.588       .  S
O528        C547   1.313       .  A
O529        C546   1.271       .  A
O530       Zr538   2.385       .  S
O530        C545   1.267       .  A
O531       Zr536   2.415       .  S
O531       Zr538   2.359       .  S
O532       Zr537   2.392       .  S
O532       Zr538   2.367       .  S
O532        H567   0.965       .  S
O533       Zr536   2.399       .  S
O533       Zr553   2.390       .  S
O533        H570   0.956       .  S
O534       Zr537   2.382       .  S
O534       Zr553   2.406       .  S
Zr535       O560   2.456       .  S
Zr535       O554   2.455       .  S
Zr535       O562   2.378       .  S
Zr535       O550   2.397       .  S
Zr535       O541   2.424       .  S
Zr535       O542   2.419       .  S
Zr535       O543   2.365       .  S
Zr535       O544   2.363       .  S
Zr536       O555   2.459       .  S
Zr536       O548   2.434       .  S
Zr536       O549   2.599       .  S
Zr536       O542   2.442       .  S
Zr536       O543   2.421       .  S
Zr537       O539   2.417       .  S
Zr537       O561   2.433       .  S
Zr537       O563   2.456       .  S
Zr537       O541   2.399       .  S
Zr537       O544   2.437       .  S
Zr538       O564   2.439       .  S
Zr538       O565   2.422       .  S
Zr538       O540   2.448       .  S
Zr538       O541   2.426       .  S
Zr538       O542   2.350       .  S
O539        H576   0.989       .  S
O540        H571   0.985       .  S
O540        H585   0.990       .  S
O542        H568   0.960       .  S
O543       Zr553   2.374       .  S
O544       Zr553   2.363       .  S
O544        H569   0.967       .  S
C545        C603   1.499       .  S
C546        C602   1.494       .  S
C547        C611   1.541       .  S
O548        H584   0.990       .  S
O549        C551   1.316       .  A
O550        C551   1.264       .  A
C551        C595   1.516       .  S
O552       Zr553   2.441       .  S
O552        H581   0.990       .  S
Zr553       O556   2.452       .  S
Zr553       O557   2.445       .  S
Zr553       O558   2.429       .  S
O554        C559   1.278       .  A
O555        H572   0.989       .  S
O555        H587   0.989       .  S
O556        H573   0.990       .  S
O557        H577   0.981       .  S
O557        H586   0.990       .  S
O558        C559   1.274       .  A
C559        C597   1.502       .  S
O560        H579   0.990       .  S
O560        H583   0.991       .  S
O561        H575   0.990       .  S
O561        H582   0.990       .  S
O562        C566   1.271       .  A
O563        C566   1.285       .  A
O564        H574   0.990       .  S
O565        H578   0.983       .  S
C566        C599   1.485       .  S
C589        C590   1.455       .  A
C589        C594   1.426       .  A
C589       C1030   1.565       .  S
C590        C591   1.512       .  A
C590       C1001   1.571       .  S
C591        C592   1.471       .  A
C591        C966   1.551       .  S
C592        C593   1.424       .  A
C592       C1014   1.541       .  S
C593        C594   1.415       .  A
C593        C985   1.544       .  S
C594        C950   1.460       .  S
C595        C969   1.527       .  S
C595        C596   1.402       .  D
C596        C641   1.512       .  S
C596        C953   1.545       .  S
C597       C2061   1.553       .  S
C597        C598   1.394       .  D
C598        C656   1.492       .  S
C598       C1033   1.541       .  S
C599        C998   1.524       .  S
C599        C600   1.370       .  D
C600        C649   1.488       .  S
C600       C2026   1.513       .  S
C601       C1751   1.498       .  S
C601        C934   1.535       .  S
C601        C602   1.403       .  D
C602        C921   1.509       .  S
C603        C889   1.532       .  S
C604        C715   1.513       .  S
C604        C902   1.539       .  S
C605       C1650   1.430   1_445  A
C605        C905   1.556       .  S
C606       C1649   1.430   1_565  A
C606        C607   1.448       .  A
C606        C937   1.480       .  S
C607        C608   1.440   1_565  A
C607        C873   1.557       .  S
C608        C886   1.534       .  S
C609       C1654   1.458       .  A
C609        C918   1.538       .  S
C610       C1653   1.458   1_455  A
C610        C854   1.523       .  S
C611        C870   1.568       .  S
C611        C612   1.401       .  D
C612        C722   1.502       .  S
C612        C857   1.542       .  S
Zr613       O614   2.449       .  S
Zr613      O1659   2.572       .  S
Zr613      O1660   2.456       .  S
Zr613      O1665   2.357       .  S
Zr613      O1667   2.437       .  S
Zr613       O624   2.428       .  S
O614        H670   0.990       .  S
O614        H678   0.991       .  S
O615      Zr1657   2.572   1_455  S
O616      Zr1657   2.456   1_455  S
O616        C637   1.282       .  A
O617       Zr627   2.439   1_556  S
O617        C636   1.286       .  A
O618       Zr626   2.499   1_556  S
O618        C637   1.297       .  A
O619        C636   1.278       .  A
O620       Zr628   2.448       .  S
O620        C635   1.283       .  A
O621      Zr1657   2.357   1_455  S
O621       Zr626   2.405   1_556  S
O622       Zr627   2.421   1_556  S
O622      Zr1672   2.390       .  S
O622        H657   0.966       .  S
O623      Zr1657   2.437       .  S
O623       Zr626   2.368   1_656  S
O623      Zr1687   2.386   1_556  S
O623        H660   0.961       .  S
O624       Zr643   2.385   1_556  S
Zr625      O1688   2.461       .  S
Zr625      O1174   2.421       .  S
Zr625       O640   2.407   1_655  S
Zr625      O1153   2.382       .  S
Zr625       O632   2.409   1_655  S
Zr625       O633   2.373   1_655  S
Zr625      O1678   2.384       .  S
Zr626       O645   2.428       .  S
Zr626       O638   2.443   1_554  S
Zr626       O639   2.486       .  S
Zr626       O632   2.410       .  S
Zr626       O633   2.366       .  S
Zr627       O629   2.437       .  S
Zr627       O651   2.407   1_554  S
Zr627       O653   2.451       .  S
Zr627       O631   2.371       .  S
Zr628       O654   2.432       .  S
Zr628       O655   2.423   1_556  S
Zr628      O1666   2.390   1_455  S
Zr628      O1675   2.386   1_456  S
O629        H666   0.990   1_554  S
O630        H675   0.989       .  S
O631      Zr1147   2.382   1_565  S
O631      Zr1672   2.386   1_554  S
O632        H658   0.964       .  S
O633      Zr1687   2.382   1_455  S
O634      Zr1669   2.384       .  S
O634       Zr643   2.373       .  S
C635        C755   1.551       .  S
C636        C746   1.485       .  S
C637        C754   1.492       .  S
O638        H674   0.991   1_556  S
O639        C641   1.294       .  A
O640        C641   1.272       .  A
O642       Zr643   2.424   1_556  S
O642        H671   0.990       .  S
Zr643       O646   2.434       .  S
Zr643       O647   2.443       .  S
Zr643       O648   2.407       .  S
Zr643      O1667   2.386   1_554  S
Zr643      O1677   2.382       .  S
O644      Zr1669   2.461       .  S
O644        C649   1.286       .  A
O645        H662   0.989   1_554  S
O645        H677   0.990       .  S
O646        H663   0.989       .  S
O647        H667   0.986       .  S
O647        H676   0.990       .  S
O648        C649   1.276       .  A
O650        H669   0.991       .  S
O650        H673   0.990   1_565  S
O651        H665   0.986       .  S
O651        H672   0.988   1_556  S
O652      Zr1147   2.421   1_565  S
O652        C656   1.277       .  A
O653        C656   1.287       .  A
O654        H664   0.990       .  S
O655        H668   0.990       .  S
Zr679       O680   2.456       .  S
Zr679       O681   2.453       .  S
Zr679       O682   2.429       .  S
Zr679       O685   2.358       .  S
Zr679       O687   2.351       .  S
Zr679       O688   2.373       .  S
Zr679       O689   2.396       .  S
Zr679       O690   2.421       .  S
O680        H736   0.990       .  S
O680        H744   0.989       .  S
O681        C701   1.282       .  A
O682        C703   1.280       .  A
O683       Zr693   2.562       .  S
O683        C702   1.310       .  A
O684       Zr692   2.492       .  S
O684        C703   1.296       .  A
O685        C702   1.269       .  A
O686       Zr694   2.435       .  S
O686        C701   1.276       .  A
O687       Zr692   2.397       .  S
O687       Zr694   2.376       .  S
O688       Zr693   2.423       .  S
O688       Zr694   2.350       .  S
O688        H723   0.960       .  S
O689       Zr692   2.380       .  S
O689       Zr709   2.375       .  S
O689        H726   0.960       .  S
O690       Zr693   2.384       .  S
O690       Zr709   2.399       .  S
Zr691       O716   2.449       .  S
Zr691       O710   2.482       .  S
Zr691       O718   2.322       .  S
Zr691       O706   2.391       .  S
Zr691       O697   2.430       .  S
Zr691       O698   2.422       .  S
Zr691       O699   2.353       .  S
Zr691       O700   2.386       .  S
Zr692       O711   2.487       .  S
Zr692       O704   2.432   1_455  S
Zr692       O705   2.530       .  S
Zr692       O698   2.406       .  S
Zr692       O699   2.392       .  S
Zr693       O695   2.424       .  S
Zr693       O717   2.437       .  S
Zr693       O719   2.581       .  S
Zr693       O697   2.373       .  S
Zr693       O700   2.416       .  S
Zr694       O720   2.444       .  S
Zr694       O721   2.456       .  S
Zr694       O696   2.441       .  S
Zr694       O697   2.396       .  S
Zr694       O698   2.414       .  S
O695        H732   0.989       .  S
O696        H727   0.988       .  S
O696        H741   0.989       .  S
O698        H724   0.963       .  S
O699       Zr709   2.381       .  S
O700       Zr709   2.382       .  S
O700        H725   0.964       .  S
C701        C753   1.495       .  S
C702        C745   1.499       .  S
C703        C756   1.510       .  S
O704        H740   0.986       .  S
O705        C707   1.294       .  A
O706        C707   1.266       .  A
C707       C1645   1.498       .  S
O708       Zr709   2.436       .  S
O708        H737   0.989   1_565  S
Zr709       O712   2.414       .  S
Zr709       O713   2.437   1_565  S
Zr709       O714   2.446       .  S
O710        C715   1.288       .  A
O711        H728   0.985       .  S
O711        H743   0.988       .  S
O712        H729   0.990   1_565  S
O713        H733   0.990       .  S
O713        H742   0.985       .  S
O714        C715   1.283       .  A
O716        H735   0.989       .  S
O716        H739   0.991       .  S
O717        H731   0.986       .  S
O717        H738   0.989       .  S
O718        C722   1.260       .  A
O719        C722   1.313       .  A
O720        H730   0.987       .  S
O721        H734   0.990       .  S
C745        C746   1.391       .  D
C746        C838   1.504       .  S
C747        C748   1.434       .  A
C747        C752   1.466       .  A
C747        C777   1.498       .  S
C748        C749   1.431       .  A
C748        C841   1.545       .  S
C749        C750   1.424       .  A
C749        C806   1.489       .  S
C750        C751   1.447       .  A
C750        C758   1.551       .  S
C751        C752   1.471       .  A
C751        C822   1.505       .  S
C752        C793   1.596       .  S
C753       C1805   1.547       .  S
C753        C754   1.413       .  D
C754        C774   1.572       .  S
C755        C756   1.401       .  D
C756       C1853   1.499   1_455  S
C757        C758   1.418       .  A
C757        C762   1.431       .  A
C757        H764   1.079       .  S
C758        C759   1.425       .  A
C759        C760   1.425       .  A
C759        C766   1.520       .  S
C760        C761   1.419       .  A
C760        H765   1.083       .  S
C761       C1797   1.547       .  S
C761        C762   1.426       .  A
C762        C763   1.519       .  S
C763        F767   1.380       .  S
C763        F768   1.377       .  S
C763        F769   1.382       .  S
C766        F770   1.380       .  S
C766        F771   1.381       .  S
C766        F772   1.378       .  S
C773        C774   1.418       .  A
C773        C778   1.423       .  A
C773        H780   1.066       .  S
C774        C775   1.453       .  A
C775        C776   1.385       .  A
C775        C782   1.485       .  S
C776        C777   1.361       .  A
C776        H781   1.087       .  S
C777        C778   1.419       .  A
C778        C779   1.503       .  S
C779        F783   1.376       .  S
C779        F784   1.381       .  S
C779        F785   1.374       .  S
C782        F786   1.363       .  S
C782        F787   1.370       .  S
C782        F788   1.369       .  S
C789        C790   1.411       .  A
C789        C794   1.437       .  A
C789        H796   1.084       .  S
C790        C791   1.419       .  A
C791        C792   1.417       .  A
C792        C793   1.414       .  A
C792        H797   1.043       .  S
C793        C794   1.449       .  A
C794        C795   1.511       .  S
C795        F799   1.375       .  S
C795        F800   1.379       .  S
C795        F801   1.379       .  S
C798        F802   1.380       .  S
C798        F803   1.380       .  S
C798        F804   1.380       .  S
C805        C806   1.399       .  A
C805        C810   1.396       .  A
C805        H812   1.084       .  S
C806        C807   1.417       .  A
C807        C808   1.410       .  A
C807        C814   1.511       .  S
C808        C809   1.405       .  A
C808        H813   1.080       .  S
C809       C1800   1.499       .  S
C809        C810   1.427       .  A
C810        C811   1.527       .  S
C811        F815   1.375       .  S
C811        F816   1.361       .  S
C811        F817   1.384       .  S
C814        F818   1.378       .  S
C814        F819   1.380       .  S
C814        F820   1.370       .  S
C821        C822   1.394       .  A
C821        C826   1.408       .  A
C821        H828   1.079       .  S
C822        C823   1.422       .  A
C823        C824   1.431       .  A
C823        C830   1.532       .  S
C824        C825   1.422       .  A
C825        C826   1.429       .  A
C826        C827   1.514       .  S
C827        F831   1.377       .  S
C827        F832   1.367       .  S
C827        F833   1.370       .  S
C830        F834   1.380       .  S
C830        F835   1.375       .  S
C830        F836   1.378       .  S
C837        C838   1.412       .  A
C837        C842   1.425       .  A
C837        H844   1.084       .  S
C838        C839   1.406       .  A
C839        C840   1.403       .  A
C839        C846   1.518       .  S
C840        C841   1.407       .  A
C840        H845   1.063       .  S
C841        C842   1.437       .  A
C842        C843   1.521       .  S
C843        F847   1.380       .  S
C843        F848   1.380       .  S
C843        F849   1.375       .  S
C846        F850   1.357       .  S
C846        F851   1.377       .  S
C846        F852   1.360       .  S
C853        C854   1.410       .  A
C853        C858   1.411       .  A
C853        H860   1.078       .  S
C854        C855   1.419       .  A
C855        C856   1.417       .  A
C855        C862   1.505       .  S
C856        C857   1.409       .  A
C856        H861   1.077       .  S
C857        C858   1.406       .  A
C858        C859   1.497       .  S
C859        F863   1.370       .  S
C859        F864   1.373       .  S
C859        F865   1.375       .  S
C862        F866   1.376       .  S
C862       F1911   1.374       .  S
C862        F868   1.367       .  S
F867       C1906   1.374       .  S
C869        C870   1.432       .  A
C869        C874   1.435       .  A
C869        H876   1.066       .  S
C870        C871   1.399       .  A
C871        C872   1.414       .  A
C871        C878   1.504       .  S
C872        C873   1.409       .  A
C872        H877   1.061       .  S
C873        C874   1.427       .  A
C874        C875   1.510       .  S
C875        F879   1.380       .  S
C875        F880   1.372       .  S
C875        F881   1.382       .  S
C878        F882   1.363       .  S
C878        F883   1.373       .  S
C878        F884   1.367       .  S
C885        C886   1.405       .  A
C885        C890   1.412       .  A
C885        H892   1.077       .  S
C887        C888   1.427       .  A
C887        C894   1.518       .  S
C888        C889   1.422       .  A
C888        H893   1.079       .  S
C890        C891   1.504       .  S
C891        F895   1.384       .  S
C891        F896   1.363   1_545  S
C891        F897   1.384       .  S
C894        F898   1.379       .  S
C894        F899   1.383       .  S
C894        F900   1.382       .  S
C901        C906   1.425       .  A
C901        H908   1.077       .  S
C902        C903   1.420       .  A
C903        C904   1.428       .  A
C903        C910   1.523       .  S
C904        C905   1.419   1_565  A
C904        H909   1.075       .  S
C906        C907   1.517       .  S
C907        F911   1.381       .  S
C907        F912   1.376       .  S
C907        F913   1.382       .  S
C910        F914   1.378       .  S
C910        F915   1.380       .  S
C910        F916   1.378       .  S
C917        C918   1.401       .  A
C917        C922   1.399       .  A
C917        H924   1.061       .  S
C918       C1963   1.428       .  A
C919       C1962   1.428       .  A
C919        C920   1.426       .  A
C919        C926   1.517       .  S
C920       C1965   1.417       .  A
C920        H925   1.084       .  S
C921       C1964   1.417       .  A
C921        C922   1.413       .  A
C922        C923   1.515       .  S
C923        F927   1.380       .  S
C923        F928   1.376       .  S
C923        F929   1.366       .  S
C926        F930   1.380       .  S
C926        F931   1.382       .  S
C926        F932   1.381       .  S
C933        C934   1.412       .  A
C933        C938   1.420       .  A
C933        H940   1.081       .  S
C934       C1979   1.441       .  A
C935       C1978   1.441   1_655  A
C935        C936   1.390       .  A
C935        C942   1.489       .  S
C936       C1981   1.367       .  A
C936        H941   1.084       .  S
C937       C1980   1.367       .  A
C937        C938   1.411       .  A
C938        C939   1.506       .  S
C939        F943   1.358       .  S
C939        F944   1.382       .  S
C939        F945   1.383       .  S
C942        F946   1.356   1_655  S
C942        F947   1.377       .  S
C942        F948   1.387       .  S
C949        C950   1.362       .  A
C949        C954   1.373       .  A
C949        H956   1.064       .  S
C950        C951   1.395       .  A
C951        C952   1.407       .  A
C951        C958   1.526       .  S
C952        C953   1.433       .  A
C952        H957   1.070       .  S
C953        C954   1.436       .  A
C954        C955   1.480       .  S
C955        F959   1.374       .  S
C955        F960   1.373       .  S
C955        F961   1.377       .  S
C958        F962   1.382       .  S
C958        F963   1.378       .  S
C958        F964   1.384       .  S
C965        C966   1.415       .  A
C965        C970   1.412   1_565  A
C965        H972   1.063       .  S
C966        C967   1.428   1_565  A
C967        C974   1.519   1_545  S
C968        C969   1.420       .  A
C968        H973   1.082       .  S
C970        C971   1.524       .  S
C971        F975   1.374   1_545  S
C971        F976   1.377       .  S
C971        F977   1.373       .  S
C974        F978   1.382       .  S
C974        F979   1.376       .  S
C981        C982   1.399   1_455  A
C981        C986   1.421       .  A
C981        H988   1.083       .  S
C982       C1644   1.513       .  S
C982        C983   1.413       .  A
C983        C984   1.415   1_655  A
C983       C2034   1.512       .  S
C984        C985   1.407       .  A
C984        H989   1.076       .  S
C985        C986   1.434       .  A
C986        C987   1.513       .  S
C987        F991   1.360       .  S
C987        F992   1.376       .  S
C987        F993   1.373       .  S
C990       C2027   1.512       .  S
C990        F994   1.375       .  S
C990        F995   1.378       .  S
C990        F996   1.381       .  S
C997        C998   1.405       .  A
C997       H1004   1.059       .  S
C999       C1000   1.429   1_545  A
C999       C1006   1.515   1_545  S
C1000      C1001   1.445       .  A
C1000      H1005   1.064       .  S
C1001      C1002   1.403   1_565  A
C1002      C1003   1.497       .  S
C1003      F1008   1.378   1_545  S
C1003      F1009   1.375       .  S
C1006      F1010   1.376       .  S
C1006      F1011   1.381   1_565  S
C1006      F1012   1.371       .  S
C1013      C1014   1.410       .  A
C1013      C1018   1.431   1_455  A
C1013      H1020   1.083       .  S
C1014      C1015   1.427       .  A
C1015      C1016   1.415   1_455  A
C1015      C1022   1.513       .  S
C1016      C1017   1.406       .  A
C1016      H2065   1.074       .  S
C1017      C1641   1.553       .  S
C1017      C1018   1.434       .  A
C1018      C1019   1.513       .  S
C1019      F1023   1.382       .  S
C1019      F1024   1.362       .  S
C1019      F1025   1.372       .  S
H1021      C2060   1.074       .  S
C1022      F1026   1.377       .  S
C1022      F1027   1.376       .  S
C1022      F1028   1.363       .  S
C1029      C1030   1.415       .  A
C1029      C1034   1.413       .  A
C1029      H1036   1.070       .  S
C1030      C1031   1.439       .  A
C1031      C1032   1.442       .  A
C1031      C1038   1.524       .  S
C1032      C1033   1.418       .  A
C1032      H1037   1.082       .  S
C1033      C1034   1.417       .  A
C1034      C1035   1.518       .  S
C1035      F1039   1.374       .  S
C1035      F1040   1.373       .  S
C1035      F1041   1.380       .  S
C1038      F1042   1.375       .  S
C1038      F1043   1.377       .  S
C1038      F1044   1.385       .  S
Zr1045     O1046   2.455       .  S
Zr1045     O1047   2.512       .  S
Zr1045     O1048   2.398       .  S
Zr1045     O1051   2.417       .  S
Zr1045     O1053   2.368       .  S
Zr1045     O1054   2.362       .  S
Zr1045     O1055   2.440       .  S
Zr1045     O1056   2.414       .  S
O1046      H1102   0.985       .  S
O1046      H1110   0.983       .  S
O1047      C1067   1.291       .  A
O1048      C1069   1.276       .  A
O1049     Zr1059   2.496       .  S
O1049      C1068   1.295       .  A
O1050     Zr1058   2.588       .  S
O1050      C1069   1.313       .  A
O1051      C1068   1.271       .  A
O1052     Zr1060   2.385       .  S
O1052      C1067   1.267       .  A
O1053     Zr1058   2.415       .  S
O1053     Zr1060   2.359       .  S
O1054     Zr1059   2.392       .  S
O1054     Zr1060   2.367       .  S
O1054      H1089   0.965       .  S
O1055     Zr1058   2.399       .  S
O1055     Zr1075   2.390       .  S
O1055      H1092   0.956       .  S
O1056     Zr1059   2.382       .  S
O1056     Zr1075   2.406       .  S
Zr1057     O1082   2.456       .  S
Zr1057     O1076   2.454       .  S
Zr1057     O1084   2.378       .  S
Zr1057     O1072   2.397       .  S
Zr1057     O1063   2.424       .  S
Zr1057     O1064   2.419       .  S
Zr1057     O1065   2.365       .  S
Zr1057     O1066   2.363       .  S
Zr1058     O1077   2.459       .  S
Zr1058     O1070   2.434       .  S
Zr1058     O1071   2.599       .  S
Zr1058     O1064   2.442       .  S
Zr1058     O1065   2.421       .  S
Zr1059     O1061   2.417       .  S
Zr1059     O1083   2.433       .  S
Zr1059     O1085   2.456       .  S
Zr1059     O1063   2.399       .  S
Zr1059     O1066   2.437       .  S
Zr1060     O1086   2.439       .  S
Zr1060     O1087   2.422       .  S
Zr1060     O1062   2.448       .  S
Zr1060     O1063   2.426       .  S
Zr1060     O1064   2.350       .  S
O1061      H1098   0.989   1_655  S
O1062      H1093   0.985       .  S
O1062      H1107   0.990       .  S
O1064      H1090   0.960       .  S
O1065     Zr1075   2.374       .  S
O1066     Zr1075   2.363       .  S
O1066      H1091   0.967       .  S
C1067      C1125   1.499       .  S
C1068      C1124   1.494       .  S
C1069      C1133   1.541       .  S
O1070      H1106   0.990       .  S
O1071      C1073   1.316       .  A
O1072      C1073   1.264       .  A
C1073      C1117   1.516       .  S
O1074     Zr1075   2.441       .  S
O1074      H1103   0.990       .  S
Zr1075     O1078   2.452       .  S
Zr1075     O1079   2.445       .  S
Zr1075     O1080   2.429       .  S
O1076      C1081   1.278       .  A
O1077      H1094   0.989       .  S
O1077      H1109   0.989       .  S
O1078      H1095   0.990       .  S
O1079      H1099   0.981       .  S
O1079      H1108   0.990       .  S
O1080      C1081   1.274       .  A
C1081      C1119   1.502       .  S
O1082      H1101   0.990       .  S
O1082      H1105   0.991       .  S
O1083      H1097   0.990       .  S
O1083      H1104   0.990       .  S
O1084      C1088   1.271       .  A
O1085      C1088   1.285       .  A
O1086      H1096   0.990   1_545  S
O1087      H1100   0.983       .  S
C1088      C1121   1.485       .  S
C1111      C1112   1.455       .  A
C1111      C1116   1.426       .  A
C1111      C1552   1.565       .  S
C1112      C1113   1.512       .  A
C1112      C1523   1.571       .  S
C1113      C1114   1.471       .  A
C1113      C1488   1.551       .  S
C1114      C1115   1.424       .  A
C1114      C1536   1.541       .  S
C1115      C1116   1.415       .  A
C1115      C1507   1.544       .  S
C1116      C1472   1.460       .  S
C1117      C1491   1.527       .  S
C1117      C1118   1.402       .  D
C1118      C1163   1.512       .  S
C1118      C1475   1.545       .  S
C1119      C1120   1.394       .  D
C1120      C1178   1.493       .  S
C1120      C1555   1.541       .  S
C1121      C1520   1.524       .  S
C1121      C1122   1.370       .  D
C1122      C1171   1.488       .  S
C1123      C1456   1.535       .  S
C1123      C1124   1.403   1_455  D
C1124      C1443   1.509   1_655  S
C1125      C1411   1.532       .  S
C1125      C1648   1.408   1_545  D
C1126      C1237   1.513       .  S
C1126      C1424   1.539       .  S
C1126      C1647   1.408       .  D
C1127      C1654   1.438       .  A
C1127      C1427   1.556       .  S
C1128      C1129   1.448       .  A
C1128      C1459   1.480       .  S
C1129      C1130   1.440       .  A
C1129      C1395   1.557       .  S
C1130      C1653   1.462       .  A
C1130      C1408   1.534       .  S
C1131      C1652   1.462       .  A
C1131      C1440   1.538   1_655  S
C1132      C1649   1.438       .  A
C1132      C1376   1.523       .  S
C1133      C1392   1.568       .  S
C1133      C1134   1.401       .  D
C1134      C1244   1.502       .  S
C1134      C1379   1.542       .  S
Zr1135     O1136   2.449       .  S
Zr1135     O1663   2.416   1_545  S
Zr1135     O1666   2.396   1_545  S
Zr1135     O1146   2.428   1_545  S
O1136      H1192   0.990       .  S
O1136      H1200   0.991       .  S
O1137      C1679   1.307       .  A
O1138      C1159   1.282       .  A
O1139     Zr1149   2.439   1_556  S
O1139      C1158   1.286       .  A
O1140     Zr1148   2.499   1_556  S
O1140      C1159   1.297       .  A
O1141     Zr1657   2.416       .  S
O1141      C1158   1.278       .  A
O1142     Zr1150   2.448       .  S
O1142      C1157   1.283       .  A
O1143     Zr1148   2.405   1_556  S
O1143     Zr1672   2.337   1_545  S
O1144     Zr1657   2.396       .  S
O1144     Zr1149   2.421   1_556  S
O1144      H1179   0.966       .  S
O1145     Zr1148   2.368   1_556  S
O1145      H1182   0.961       .  S
O1146     Zr1671   2.372   1_556  S
O1146     Zr1165   2.385   1_566  S
Zr1147     O1694   2.427   1_545  S
Zr1147     O1162   2.407       .  S
Zr1147     O1154   2.409       .  S
Zr1147     O1155   2.373       .  S
Zr1148     O1167   2.428       .  S
Zr1148     O1160   2.443   1_554  S
Zr1148     O1161   2.486       .  S
Zr1148     O1154   2.410       .  S
Zr1148     O1155   2.366       .  S
Zr1149     O1151   2.437       .  S
Zr1149     O1173   2.407   1_554  S
Zr1149     O1175   2.451       .  S
Zr1149     O1668   2.372   1_554  S
Zr1149     O1153   2.371       .  S
Zr1149     O1678   2.382       .  S
Zr1150     O1176   2.432       .  S
Zr1150     O1177   2.423   1_556  S
Zr1150     O1674   2.437       .  S
Zr1150     O1665   2.337       .  S
Zr1150     O1676   2.404   1_556  S
O1151      H1188   0.990   1_554  S
O1152     Zr1672   2.437   1_545  S
O1152      H1705   0.985       .  S
O1152      H1197   0.989       .  S
O1154     Zr1672   2.404   1_544  S
O1154      H1180   0.964       .  S
O1156     Zr1671   2.382       .  S
O1156     Zr1165   2.373   1_565  S
O1156      H1703   0.966       .  S
C1157      O1659   1.307       .  A
C1157      C1277   1.551       .  S
C1158      C1268   1.485       .  S
C1159      C1276   1.492       .  S
O1160      H1196   0.991   1_556  S
O1161      C1163   1.294       .  A
O1162      C1163   1.272       .  A
O1164     Zr1165   2.424   1_556  S
O1164      H1193   0.990       .  S
Zr1165     O1168   2.434       .  S
Zr1165     O1169   2.443       .  S
Zr1165     O1170   2.407       .  S
O1166      C1171   1.286       .  A
O1167      H1184   0.989   1_554  S
O1167      H1199   0.990       .  S
O1168      H1185   0.989       .  S
O1169      H1189   0.986       .  S
O1169      H1198   0.990       .  S
O1170      C1171   1.276       .  A
O1172     Zr1669   2.427       .  S
O1172      H1191   0.991       .  S
O1172      H1195   0.990       .  S
O1173      H1187   0.986       .  S
O1173      H1194   0.988   1_556  S
O1174      C1178   1.277       .  A
O1175      C1178   1.287       .  A
O1176      H1186   0.990       .  S
O1177      H1190   0.990       .  S
H1181      O1678   0.966       .  S
H1183      O1674   0.985       .  S
Zr1201     O1202   2.456       .  S
Zr1201     O1203   2.453       .  S
Zr1201     O1204   2.429       .  S
Zr1201     O1207   2.358       .  S
Zr1201     O1209   2.351       .  S
Zr1201     O1210   2.374       .  S
Zr1201     O1211   2.395       .  S
Zr1201     O1212   2.421       .  S
O1202      H1258   0.990       .  S
O1202      H1266   0.988       .  S
O1203      C1223   1.282       .  A
O1204      C1225   1.280       .  A
O1205     Zr1215   2.563       .  S
O1205      C1224   1.310       .  A
O1206     Zr1214   2.492       .  S
O1206      C1225   1.296       .  A
O1207      C1224   1.269       .  A
O1208     Zr1216   2.435       .  S
O1208      C1223   1.276       .  A
O1209     Zr1214   2.397       .  S
O1209     Zr1216   2.376       .  S
O1210     Zr1215   2.424       .  S
O1210     Zr1216   2.351       .  S
O1210      H1245   0.959       .  S
O1211     Zr1214   2.380       .  S
O1211     Zr1231   2.375       .  S
O1211      H1248   0.960       .  S
O1212     Zr1215   2.384       .  S
O1212     Zr1231   2.399       .  S
Zr1213     O1238   2.449       .  S
Zr1213     O1232   2.482       .  S
Zr1213     O1240   2.322       .  S
Zr1213     O1228   2.391       .  S
Zr1213     O1219   2.430       .  S
Zr1213     O1220   2.422       .  S
Zr1213     O1221   2.353       .  S
Zr1213     O1222   2.386       .  S
Zr1214     O1233   2.487       .  S
Zr1214     O1226   2.432       .  S
Zr1214     O1227   2.530       .  S
Zr1214     O1220   2.406       .  S
Zr1214     O1221   2.392       .  S
Zr1215     O1217   2.424       .  S
Zr1215     O1239   2.437       .  S
Zr1215     O1241   2.581       .  S
Zr1215     O1219   2.373       .  S
Zr1215     O1222   2.416       .  S
Zr1216     O1242   2.444       .  S
Zr1216     O1243   2.456       .  S
Zr1216     O1218   2.441       .  S
Zr1216     O1219   2.396       .  S
Zr1216     O1220   2.414       .  S
O1217      H1254   0.989       .  S
O1218      H1249   0.988       .  S
O1218      H1263   0.989       .  S
O1220      H1246   0.963       .  S
O1221     Zr1231   2.381       .  S
O1222     Zr1231   2.382       .  S
O1222      H1247   0.964       .  S
C1223      C1275   1.495       .  S
C1224      C1267   1.499       .  S
C1225      C1278   1.510       .  S
O1226      H1262   0.986       .  S
O1227      C1229   1.294       .  A
O1228      C1229   1.266       .  A
O1230     Zr1231   2.436       .  S
O1230      H1259   0.989       .  S
Zr1231     O1234   2.414       .  S
Zr1231     O1235   2.437       .  S
Zr1231     O1236   2.446       .  S
O1232      C1237   1.288       .  A
O1233      H1250   0.985       .  S
O1233      H1265   0.987       .  S
O1234      H1251   0.990       .  S
O1235      H1255   0.990       .  S
O1235      H1264   0.985       .  S
O1236      C1237   1.283       .  A
O1238      H1257   0.989       .  S
O1238      H1261   0.991       .  S
O1239      H1253   0.986       .  S
O1239      H1260   0.989       .  S
O1240      C1244   1.260       .  A
O1241      C1244   1.313       .  A
O1242      H1252   0.987       .  S
O1243      H1256   0.990       .  S
C1267      C1869   1.544       .  S
C1267      C1268   1.391       .  D
C1268      C1360   1.504       .  S
C1269      C1270   1.434       .  A
C1269      C1274   1.466       .  A
C1269      C1299   1.498       .  S
C1270      C1271   1.431       .  A
C1270      C1363   1.545       .  S
C1271      C1272   1.424       .  A
C1271      C1328   1.489       .  S
C1272      C1273   1.447       .  A
C1272      C1280   1.551       .  S
C1273      C1274   1.471       .  A
C1273      C1344   1.505       .  S
C1274      C1315   1.596       .  S
C1275      C1276   1.413       .  D
C1276      C1296   1.572       .  S
C1277      C1834   1.537       .  S
C1277      C1278   1.401       .  D
C1279      C1280   1.418       .  A
C1279      C1284   1.431       .  A
C1279      H1286   1.079       .  S
C1280      C1281   1.425       .  A
C1281      C1282   1.425       .  A
C1281      C1288   1.520       .  S
C1282      C1283   1.419   1_655  A
C1282      H1287   1.083       .  S
C1283      C1284   1.426   1_455  A
C1284      C1285   1.519   1_655  S
C1285      F1289   1.380       .  S
C1285      F1290   1.377       .  S
C1285      F1291   1.382       .  S
C1288      F1292   1.380       .  S
C1288      F1293   1.381       .  S
C1288      F1294   1.378       .  S
C1295      C1296   1.418       .  A
C1295      C1300   1.423       .  A
C1295      H1302   1.066       .  S
C1296      C1297   1.453       .  A
C1297      C1298   1.385       .  A
C1297      C1304   1.485       .  S
C1298      C1299   1.361       .  A
C1298      H1303   1.087       .  S
C1299      C1300   1.419       .  A
C1300      C1301   1.503       .  S
C1301      F1305   1.376       .  S
C1301      F1306   1.381       .  S
C1301      F1307   1.374       .  S
C1304      F1308   1.363       .  S
C1304      F1309   1.370       .  S
C1304      F1310   1.369       .  S
C1311      C1312   1.411   1_545  A
C1311      C1316   1.437       .  A
C1311      H1318   1.084       .  S
C1312      C1799   1.537       .  S
C1312      C1313   1.419       .  A
C1313      C1314   1.417   1_565  A
C1313      C1842   1.519       .  S
C1314      C1315   1.414       .  A
C1314      H1319   1.043       .  S
C1315      C1316   1.449       .  A
C1316      C1317   1.511       .  S
C1317      F1321   1.375       .  S
C1317      F1322   1.379       .  S
C1317      F1323   1.379       .  S
C1320      C1835   1.519       .  S
C1320      F1324   1.380       .  S
C1320      F1325   1.380       .  S
C1320      F1326   1.380       .  S
C1327      C1328   1.399       .  A
C1327      C1332   1.396       .  A
C1327      H1334   1.084       .  S
C1328      C1329   1.417       .  A
C1329      C1330   1.410       .  A
C1329      C1336   1.511       .  S
C1330      C1331   1.405       .  A
C1330      H1335   1.080   1_655  S
C1331      C1332   1.427       .  A
C1332      C1333   1.527       .  S
C1333      F1337   1.375       .  S
C1333      F1338   1.361       .  S
C1333      F1339   1.384       .  S
C1336      F1340   1.378       .  S
C1336      F1341   1.380       .  S
C1336      F1342   1.370       .  S
C1343      C1344   1.394       .  A
C1343      C1348   1.408   1_545  A
C1343      H1350   1.079       .  S
C1344      C1345   1.422       .  A
C1345      C1346   1.431   1_545  A
C1345      C1352   1.532       .  S
C1346      C1347   1.422       .  A
C1346      H1873   1.081       .  S
C1347      C1789   1.544       .  S
C1347      C1348   1.429       .  A
C1348      C1349   1.514       .  S
C1349      F1353   1.377   1_565  S
C1349      F1354   1.367       .  S
C1349      F1355   1.370       .  S
H1351      C1868   1.081       .  S
C1352      F1356   1.380       .  S
C1352      F1357   1.375       .  S
C1352      F1358   1.378       .  S
C1359      C1360   1.412       .  A
C1359      C1364   1.425       .  A
C1359      H1366   1.084       .  S
C1360      C1361   1.406       .  A
C1361      C1362   1.403       .  A
C1361      C1368   1.518       .  S
C1362      C1363   1.407       .  A
C1362      H1367   1.063       .  S
C1363      C1364   1.437       .  A
C1364      C1365   1.521       .  S
C1365      F1369   1.380       .  S
C1365      F1370   1.380       .  S
C1365      F1371   1.375       .  S
C1368      F1372   1.357       .  S
C1368      F1373   1.377       .  S
C1368      F1374   1.360       .  S
C1375      C1376   1.410       .  A
C1375      C1380   1.411       .  A
C1375      H1382   1.078       .  S
C1376      C1377   1.419       .  A
C1377      C1378   1.417       .  A
C1377      C1384   1.505       .  S
C1378      C1379   1.409       .  A
C1378      H1383   1.077       .  S
C1379      C1380   1.406       .  A
C1380      C1381   1.497       .  S
C1381      F1385   1.370       .  S
C1381      F1386   1.373       .  S
C1381      F1387   1.375       .  S
C1384      F1388   1.376       .  S
C1384      F1390   1.367       .  S
C1391      C1392   1.432       .  A
C1391      C1396   1.435       .  A
C1391      H1398   1.066       .  S
C1392      C1393   1.399       .  A
C1393      C1394   1.414       .  A
C1393      C1400   1.504       .  S
C1394      C1395   1.409       .  A
C1394      H1399   1.061       .  S
C1395      C1396   1.427       .  A
C1396      C1397   1.510       .  S
C1397      F1401   1.380       .  S
C1397      F1402   1.372       .  S
C1397      F1403   1.382       .  S
C1400      F1404   1.363       .  S
C1400      F1405   1.373       .  S
C1400      F1406   1.367       .  S
C1407      C1408   1.405       .  A
C1407      C1412   1.412       .  A
C1407      H1414   1.077       .  S
C1408      C1931   1.419       .  A
C1409      C1930   1.419       .  A
C1409      C1410   1.427   1_545  A
C1409      C1416   1.518   1_545  S
C1410      C1411   1.422   1_565  A
C1410      H1415   1.079       .  S
C1411      C1934   1.414       .  A
C1412      C1933   1.414       .  A
C1412      C1413   1.504       .  S
C1413      F1417   1.384       .  S
C1413      F1418   1.363       .  S
C1413      F1419   1.384       .  S
C1416      F1420   1.379       .  S
C1416      F1421   1.383   1_565  S
C1416      F1422   1.382       .  S
C1423      C1946   1.413   1_545  A
C1423      C1428   1.425       .  A
C1423      H1430   1.077       .  S
C1424      C1945   1.413       .  A
C1424      C1425   1.420       .  A
C1425      C1426   1.428       .  A
C1425      C1432   1.523       .  S
C1426      C1427   1.419       .  A
C1426      H1431   1.075       .  S
C1427      C1950   1.425       .  A
C1428      C1949   1.425       .  A
C1428      C1429   1.517       .  S
C1429      F1433   1.381   1_545  S
C1429      F1434   1.376       .  S
C1429      F1435   1.382       .  S
C1432      F1436   1.378       .  S
C1432      F1437   1.380       .  S
C1432      F1438   1.378       .  S
C1439      C1440   1.401   1_655  A
C1439      C1444   1.399       .  A
C1439      H1446   1.061       .  S
C1441      C1442   1.426       .  A
C1441      C1448   1.517       .  S
C1442      H1447   1.084       .  S
C1443      C1444   1.413   1_455  A
C1444      C1445   1.515       .  S
C1445      F1449   1.380       .  S
C1445      F1450   1.376       .  S
C1445      F1451   1.366       .  S
C1448      F1452   1.380       .  S
C1448      F1453   1.382       .  S
C1448      F1454   1.381       .  S
C1455      C1456   1.412       .  A
C1455      C1460   1.420       .  A
C1455      H1462   1.081       .  S
C1457      C1458   1.390       .  A
C1457      C1464   1.489       .  S
C1458      H1463   1.084       .  S
C1459      C1460   1.411   1_655  A
C1460      C1461   1.506       .  S
C1461      F1465   1.358   1_455  S
C1461      F1466   1.382       .  S
C1461      F1467   1.383       .  S
C1464      F1468   1.356       .  S
C1464      F1469   1.377       .  S
C1464      F1470   1.387       .  S
C1471      C1472   1.362       .  A
C1471      C1476   1.373       .  A
C1471      H1478   1.064       .  S
C1472      C1473   1.395       .  A
C1473      C1474   1.407       .  A
C1473      C1480   1.526       .  S
C1474      C1475   1.433       .  A
C1474      H1479   1.070       .  S
C1475      C1476   1.436       .  A
C1476      C1477   1.480       .  S
C1477      F1481   1.374       .  S
C1477      F1482   1.373       .  S
C1477      F1483   1.377       .  S
C1480      F1484   1.382       .  S
C1480      F1485   1.378       .  S
C1480      F1486   1.384       .  S
C1487      C1488   1.415       .  A
C1487      C1492   1.412       .  A
C1487      H1494   1.063       .  S
C1488      C1489   1.428       .  A
C1489      C2012   1.438       .  A
C1489      C1496   1.519       .  S
C1490      C2011   1.438       .  A
C1490      C1491   1.420       .  A
C1490      H1495   1.082       .  S
C1491      C2014   1.405       .  A
C1492      C2013   1.405       .  A
C1492      C1493   1.524       .  S
C1493      F1497   1.374       .  S
C1493      F1498   1.377       .  S
C1493      F1499   1.373       .  S
C1496      F1500   1.382       .  S
C1496      F1501   1.376       .  S
C1496      F2024   1.382       .  S
F1502      C2018   1.382   1_545  S
C1503      C1504   1.399       .  A
C1503      C1508   1.421       .  A
C1503      H1510   1.083       .  S
C1504      C1505   1.413       .  A
C1505      C1506   1.415       .  A
C1506      C1507   1.407       .  A
C1506      H1511   1.076       .  S
C1507      C1508   1.434       .  A
C1508      C1509   1.513       .  S
C1509      F1513   1.360       .  S
C1509      F1514   1.376       .  S
C1509      F1515   1.373       .  S
C1512      F1516   1.375       .  S
C1512      F1517   1.378       .  S
C1512      F1518   1.381       .  S
C1519      C1520   1.405       .  A
C1519      C2046   1.407       .  A
C1519      H1526   1.059       .  S
C1520      C2043   1.412       .  A
C1521      C2042   1.412       .  A
C1521      C1522   1.429       .  A
C1521      C1528   1.515       .  S
C1522      C1523   1.445       .  A
C1522      H1527   1.064       .  S
C1523      C1524   1.403       .  A
C1524      C2041   1.407       .  A
C1524      C1525   1.497       .  S
C1525      F2051   1.379       .  S
C1525      F1530   1.378       .  S
C1525      F1531   1.375       .  S
C1528      F1532   1.376       .  S
C1528      F1533   1.381       .  S
C1528      F1534   1.371       .  S
F1529      C2047   1.379       .  S
C1535      C1536   1.410       .  A
C1535      C1540   1.431       .  A
C1535      H1542   1.083       .  S
C1536      C1537   1.427       .  A
C1537      C1538   1.415       .  A
C1537      C1544   1.513       .  S
C1538      C1539   1.406       .  A
C1539      C1540   1.434       .  A
C1540      C1541   1.513       .  S
C1541      F1545   1.382       .  S
C1541      F1546   1.362       .  S
C1541      F1547   1.372       .  S
C1544      F1548   1.377       .  S
C1544      F1549   1.376       .  S
C1544      F1550   1.363       .  S
C1551      C1552   1.415       .  A
C1551      C1556   1.413       .  A
C1551      H1558   1.070       .  S
C1552      C1553   1.439       .  A
C1553      C1554   1.442       .  A
C1553      C1560   1.524       .  S
C1554      C1555   1.418       .  A
C1554      H1559   1.082       .  S
C1555      C1556   1.417       .  A
C1556      C1557   1.518       .  S
C1557      F1561   1.374       .  S
C1557      F1562   1.373       .  S
C1557      F1563   1.380       .  S
C1560      F1564   1.375       .  S
C1560      F1565   1.377       .  S
C1560      F1566   1.385       .  S
Zr1567     O1568   2.455       .  S
Zr1567     O1569   2.512       .  S
Zr1567     O1570   2.398       .  S
Zr1567     O1573   2.417       .  S
Zr1567     O1575   2.368       .  S
Zr1567     O1576   2.362       .  S
Zr1567     O1577   2.440       .  S
Zr1567     O1578   2.414       .  S
O1568      H1624   0.985       .  S
O1568      H1632   0.983       .  S
O1569      C1589   1.291       .  A
O1570      C1591   1.276       .  A
O1571     Zr1581   2.496       .  S
O1571      C1590   1.295       .  A
O1572     Zr1580   2.588       .  S
O1572      C1591   1.313       .  A
O1573      C1590   1.271       .  A
O1574     Zr1582   2.385       .  S
O1574      C1589   1.267       .  A
O1575     Zr1580   2.415       .  S
O1575     Zr1582   2.359       .  S
O1576     Zr1581   2.392       .  S
O1576     Zr1582   2.367       .  S
O1576      H1611   0.965       .  S
O1577     Zr1580   2.399       .  S
O1577     Zr1597   2.390       .  S
O1577      H1614   0.956       .  S
O1578     Zr1581   2.382       .  S
O1578     Zr1597   2.406       .  S
Zr1579     O1604   2.456       .  S
Zr1579     O1598   2.455       .  S
Zr1579     O1606   2.378       .  S
Zr1579     O1594   2.397       .  S
Zr1579     O1585   2.424       .  S
Zr1579     O1586   2.419       .  S
Zr1579     O1587   2.365       .  S
Zr1579     O1588   2.363       .  S
Zr1580     O1599   2.459       .  S
Zr1580     O1592   2.434       .  S
Zr1580     O1593   2.599       .  S
Zr1580     O1586   2.442       .  S
Zr1580     O1587   2.421       .  S
Zr1581     O1583   2.417       .  S
Zr1581     O1605   2.433       .  S
Zr1581     O1607   2.456       .  S
Zr1581     O1585   2.399       .  S
Zr1581     O1588   2.437       .  S
Zr1582     O1608   2.439       .  S
Zr1582     O1609   2.422       .  S
Zr1582     O1584   2.448       .  S
Zr1582     O1585   2.426       .  S
Zr1582     O1586   2.350       .  S
O1583      H1620   0.989   1_655  S
O1584      H1615   0.985       .  S
O1584      H1629   0.990       .  S
O1586      H1612   0.960       .  S
O1587     Zr1597   2.374       .  S
O1588     Zr1597   2.363       .  S
O1588      H1613   0.967       .  S
C1589      C1647   1.499       .  S
C1590      C1646   1.494       .  S
C1591      C1655   1.541       .  S
O1592      H1628   0.990       .  S
O1593      C1595   1.316       .  A
O1594      C1595   1.264       .  A
C1595      C1639   1.516       .  S
O1596     Zr1597   2.441       .  S
O1596      H1625   0.990       .  S
Zr1597     O1600   2.452       .  S
Zr1597     O1601   2.445       .  S
Zr1597     O1602   2.429       .  S
O1598      C1603   1.278       .  A
O1599      H1616   0.989       .  S
O1599      H1631   0.989       .  S
O1600      H1617   0.990       .  S
O1601      H1621   0.981       .  S
O1601      H1630   0.990       .  S
O1602      C1603   1.274       .  A
C1603      C1641   1.502       .  S
O1604      H1623   0.990       .  S
O1604      H1627   0.991       .  S
O1605      H1619   0.990       .  S
O1605      H1626   0.990       .  S
O1606      C1610   1.271       .  A
O1607      C1610   1.285       .  A
O1608      H1618   0.990       .  S
O1609      H1622   0.983       .  S
C1610      C1643   1.485       .  S
C1633      C1634   1.455       .  A
C1633      C1638   1.426       .  A
C1633      C2074   1.565       .  S
C1634      C1635   1.512       .  A
C1634      C2045   1.571       .  S
C1635      C1636   1.471       .  A
C1635      C2010   1.551       .  S
C1636      C1637   1.424       .  A
C1636      C2058   1.541       .  S
C1637      C1638   1.415       .  A
C1637      C2029   1.544       .  S
C1638      C1994   1.460       .  S
C1639      C2013   1.527       .  S
C1639      C1640   1.402       .  D
C1640      C1685   1.512       .  S
C1640      C1997   1.545       .  S
C1641      C1642   1.394       .  D
C1642      C1700   1.492       .  S
C1642      C2077   1.541       .  S
C1643      C2042   1.524       .  S
C1643      C1644   1.370       .  D
C1644      C1693   1.488       .  S
C1645      C1978   1.535       .  S
C1645      C1646   1.403   1_455  D
C1646      C1965   1.509   1_655  S
C1647      C1933   1.532       .  S
C1648      C1759   1.513       .  S
C1648      C1946   1.539       .  S
C1649      C1949   1.556       .  S
C1650      C1651   1.448       .  A
C1650      C1981   1.480       .  S
C1651      C1652   1.440   1_565  A
C1651      C1917   1.557       .  S
C1652      C1930   1.534       .  S
C1653      C1962   1.538   1_655  S
C1654      C1898   1.523       .  S
C1655      C1914   1.568       .  S
C1655      C1656   1.401       .  D
C1656      C1766   1.502       .  S
C1656      C1901   1.542       .  S
Zr1657     O1658   2.449       .  S
Zr1657     O1668   2.428       .  S
O1658      H1714   0.990       .  S
O1658      H1722   0.991       .  S
O1660      C1681   1.282       .  A
O1661     Zr1671   2.439   1_556  S
O1661      C1680   1.286       .  A
O1662     Zr1670   2.499   1_556  S
O1662      C1681   1.297       .  A
O1663      C1680   1.278       .  A
O1664     Zr1672   2.448       .  S
O1664      C1679   1.283       .  A
O1665     Zr1670   2.405   1_556  S
O1666     Zr1671   2.421   1_556  S
O1666      H1701   0.966       .  S
O1667     Zr1670   2.368   1_556  S
O1667      H1704   0.961       .  S
O1668     Zr1687   2.385   1_556  S
Zr1669     O1684   2.407       .  S
Zr1669     O1676   2.409       .  S
Zr1669     O1677   2.373       .  S
Zr1670     O1689   2.428       .  S
Zr1670     O1682   2.443   1_554  S
Zr1670     O1683   2.486       .  S
Zr1670     O1676   2.410       .  S
Zr1670     O1677   2.366       .  S
Zr1671     O1673   2.437       .  S
Zr1671     O1695   2.407   1_554  S
Zr1671     O1697   2.451       .  S
Zr1671     O1675   2.371       .  S
Zr1672     O1698   2.432       .  S
Zr1672     O1699   2.423   1_556  S
O1673      H1710   0.990   1_554  S
O1674      H1719   0.989       .  S
O1676      H1702   0.964       .  S
O1678     Zr1687   2.373       .  S
C1679      C1799   1.551       .  S
C1680      C1790   1.485       .  S
C1681      C1798   1.492       .  S
O1682      H1718   0.991   1_556  S
O1683      C1685   1.294       .  A
O1684      C1685   1.272       .  A
O1686     Zr1687   2.424   1_556  S
O1686      H1715   0.990       .  S
Zr1687     O1690   2.434       .  S
Zr1687     O1691   2.443       .  S
Zr1687     O1692   2.407       .  S
O1688      C1693   1.286       .  A
O1689      H1706   0.989   1_554  S
O1689      H1721   0.990       .  S
O1690      H1707   0.989       .  S
O1691      H1711   0.986       .  S
O1691      H1720   0.990       .  S
O1692      C1693   1.276       .  A
O1694      H1713   0.991       .  S
O1694      H1717   0.990   1_565  S
O1695      H1709   0.986       .  S
O1695      H1716   0.988   1_556  S
O1696      C1700   1.277       .  A
O1697      C1700   1.287       .  A
O1698      H1708   0.990       .  S
O1699      H1712   0.990       .  S
Zr1723     O1724   2.456       .  S
Zr1723     O1725   2.453       .  S
Zr1723     O1726   2.429       .  S
Zr1723     O1729   2.358       .  S
Zr1723     O1731   2.351       .  S
Zr1723     O1732   2.373       .  S
Zr1723     O1733   2.396       .  S
Zr1723     O1734   2.421       .  S
O1724      H1780   0.990       .  S
O1724      H1788   0.989       .  S
O1725      C1745   1.282       .  A
O1726      C1747   1.280       .  A
O1727     Zr1737   2.562       .  S
O1727      C1746   1.310       .  A
O1728     Zr1736   2.492       .  S
O1728      C1747   1.296       .  A
O1729      C1746   1.269       .  A
O1730     Zr1738   2.435       .  S
O1730      C1745   1.276       .  A
O1731     Zr1736   2.397       .  S
O1731     Zr1738   2.376       .  S
O1732     Zr1737   2.423       .  S
O1732     Zr1738   2.350       .  S
O1732      H1767   0.960       .  S
O1733     Zr1736   2.380       .  S
O1733     Zr1753   2.375       .  S
O1733      H1770   0.960       .  S
O1734     Zr1737   2.384       .  S
O1734     Zr1753   2.399       .  S
Zr1735     O1760   2.449       .  S
Zr1735     O1754   2.482       .  S
Zr1735     O1762   2.322       .  S
Zr1735     O1750   2.391       .  S
Zr1735     O1741   2.430       .  S
Zr1735     O1742   2.422       .  S
Zr1735     O1743   2.353       .  S
Zr1735     O1744   2.386       .  S
Zr1736     O1755   2.487       .  S
Zr1736     O1748   2.432       .  S
Zr1736     O1749   2.530       .  S
Zr1736     O1742   2.406       .  S
Zr1736     O1743   2.392       .  S
Zr1737     O1739   2.424       .  S
Zr1737     O1761   2.437       .  S
Zr1737     O1763   2.581       .  S
Zr1737     O1741   2.373       .  S
Zr1737     O1744   2.416       .  S
Zr1738     O1764   2.444       .  S
Zr1738     O1765   2.456       .  S
Zr1738     O1740   2.441       .  S
Zr1738     O1741   2.396       .  S
Zr1738     O1742   2.414       .  S
O1739      H1776   0.989       .  S
O1740      H1771   0.988       .  S
O1740      H1785   0.989       .  S
O1742      H1768   0.963       .  S
O1743     Zr1753   2.381       .  S
O1744     Zr1753   2.382       .  S
O1744      H1769   0.964       .  S
C1745      C1797   1.495       .  S
C1746      C1789   1.499       .  S
C1747      C1800   1.510       .  S
O1748      H1784   0.986       .  S
O1749      C1751   1.294       .  A
O1750      C1751   1.266       .  A
O1752     Zr1753   2.436       .  S
O1752      H1781   0.989   1_565  S
Zr1753     O1756   2.414       .  S
Zr1753     O1757   2.437   1_565  S
Zr1753     O1758   2.446       .  S
O1754      C1759   1.288       .  A
O1755      H1772   0.985       .  S
O1755      H1787   0.988       .  S
O1756      H1773   0.990   1_565  S
O1757      H1777   0.990       .  S
O1757      H1786   0.985       .  S
O1758      C1759   1.283       .  A
O1760      H1779   0.989       .  S
O1760      H1783   0.991       .  S
O1761      H1775   0.986       .  S
O1761      H1782   0.989       .  S
O1762      C1766   1.260       .  A
O1763      C1766   1.313       .  A
O1764      H1774   0.987       .  S
O1765      H1778   0.990       .  S
C1789      C1790   1.391       .  D
C1790      C1882   1.504       .  S
C1791      C1792   1.434       .  A
C1791      C1796   1.466       .  A
C1791      C1821   1.498       .  S
C1792      C1793   1.431       .  A
C1792      C1885   1.545       .  S
C1793      C1794   1.424       .  A
C1793      C1850   1.489       .  S
C1794      C1795   1.447       .  A
C1794      C1802   1.551       .  S
C1795      C1796   1.471       .  A
C1795      C1866   1.505       .  S
C1796      C1837   1.596       .  S
C1797      C1798   1.413       .  D
C1798      C1818   1.572       .  S
C1799      C1800   1.401       .  D
C1801      C1802   1.418       .  A
C1801      C1806   1.431       .  A
C1801      H1808   1.079       .  S
C1802      C1803   1.425       .  A
C1803      C1804   1.425       .  A
C1803      C1810   1.520       .  S
C1804      C1805   1.419   1_655  A
C1804      H1809   1.083       .  S
C1805      C1806   1.426   1_455  A
C1806      C1807   1.519   1_655  S
C1807      F1811   1.380       .  S
C1807      F1812   1.377       .  S
C1807      F1813   1.382       .  S
C1810      F1814   1.380       .  S
C1810      F1815   1.381       .  S
C1810      F1816   1.378       .  S
C1817      C1818   1.418       .  A
C1817      C1822   1.423       .  A
C1817      H1824   1.066       .  S
C1818      C1819   1.453       .  A
C1819      C1820   1.385       .  A
C1819      C1826   1.485       .  S
C1820      C1821   1.361       .  A
C1820      H1825   1.087       .  S
C1821      C1822   1.419       .  A
C1822      C1823   1.503       .  S
C1823      F1827   1.376       .  S
C1823      F1828   1.381       .  S
C1823      F1829   1.374       .  S
C1826      F1830   1.363       .  S
C1826      F1831   1.370       .  S
C1826      F1832   1.369       .  S
C1833      C1834   1.411       .  A
C1833      C1838   1.437       .  A
C1833      H1840   1.084       .  S
C1834      C1835   1.419       .  A
C1835      C1836   1.417       .  A
C1836      C1837   1.414       .  A
C1836      H1841   1.043       .  S
C1837      C1838   1.449       .  A
C1838      C1839   1.511       .  S
C1839      F1843   1.375       .  S
C1839      F1844   1.379       .  S
C1839      F1845   1.379       .  S
C1842      F1846   1.380       .  S
C1842      F1847   1.380       .  S
C1842      F1848   1.380       .  S
C1849      C1850   1.399       .  A
C1849      C1854   1.396       .  A
C1849      H1856   1.084       .  S
C1850      C1851   1.417       .  A
C1851      C1852   1.410       .  A
C1851      C1858   1.511       .  S
C1852      C1853   1.405       .  A
C1852      H1857   1.080   1_655  S
C1853      C1854   1.427       .  A
C1854      C1855   1.527       .  S
C1855      F1859   1.375       .  S
C1855      F1860   1.361       .  S
C1855      F1861   1.384       .  S
C1858      F1862   1.378       .  S
C1858      F1863   1.380       .  S
C1858      F1864   1.370       .  S
C1865      C1866   1.394       .  A
C1865      C1870   1.408       .  A
C1865      H1872   1.079       .  S
C1866      C1867   1.422       .  A
C1867      C1868   1.431       .  A
C1867      C1874   1.532       .  S
C1868      C1869   1.422       .  A
C1869      C1870   1.429       .  A
C1870      C1871   1.514       .  S
C1871      F1875   1.377       .  S
C1871      F1876   1.367       .  S
C1871      F1877   1.370       .  S
C1874      F1878   1.380       .  S
C1874      F1879   1.375       .  S
C1874      F1880   1.378       .  S
C1881      C1882   1.412       .  A
C1881      C1886   1.425       .  A
C1881      H1888   1.084       .  S
C1882      C1883   1.406       .  A
C1883      C1884   1.403       .  A
C1883      C1890   1.518       .  S
C1884      C1885   1.407       .  A
C1884      H1889   1.063       .  S
C1885      C1886   1.437       .  A
C1886      C1887   1.521       .  S
C1887      F1891   1.380       .  S
C1887      F1892   1.380       .  S
C1887      F1893   1.375       .  S
C1890      F1894   1.357       .  S
C1890      F1895   1.377       .  S
C1890      F1896   1.360       .  S
C1897      C1898   1.410       .  A
C1897      C1902   1.411       .  A
C1897      H1904   1.078       .  S
C1898      C1899   1.419       .  A
C1899      C1900   1.417       .  A
C1899      C1906   1.505       .  S
C1900      C1901   1.409       .  A
C1900      H1905   1.077       .  S
C1901      C1902   1.406       .  A
C1902      C1903   1.497       .  S
C1903      F1907   1.370       .  S
C1903      F1908   1.373       .  S
C1903      F1909   1.375       .  S
C1906      F1910   1.376       .  S
C1906      F1912   1.367       .  S
C1913      C1914   1.432       .  A
C1913      C1918   1.435       .  A
C1913      H1920   1.066       .  S
C1914      C1915   1.399       .  A
C1915      C1916   1.414       .  A
C1915      C1922   1.504       .  S
C1916      C1917   1.409       .  A
C1916      H1921   1.061       .  S
C1917      C1918   1.427       .  A
C1918      C1919   1.510       .  S
C1919      F1923   1.380       .  S
C1919      F1924   1.372       .  S
C1919      F1925   1.382       .  S
C1922      F1926   1.363       .  S
C1922      F1927   1.373       .  S
C1922      F1928   1.367       .  S
C1929      C1930   1.405       .  A
C1929      C1934   1.412       .  A
C1929      H1936   1.077       .  S
C1931      C1932   1.427       .  A
C1931      C1938   1.518       .  S
C1932      C1933   1.422       .  A
C1932      H1937   1.079       .  S
C1934      C1935   1.504       .  S
C1935      F1939   1.384       .  S
C1935      F1940   1.363   1_545  S
C1935      F1941   1.384       .  S
C1938      F1942   1.379       .  S
C1938      F1943   1.383       .  S
C1938      F1944   1.382       .  S
C1945      C1950   1.425       .  A
C1945      H1952   1.077       .  S
C1946      C1947   1.420       .  A
C1947      C1948   1.428       .  A
C1947      C1954   1.523       .  S
C1948      C1949   1.419   1_565  A
C1948      H1953   1.075       .  S
C1950      C1951   1.517       .  S
C1951      F1955   1.381       .  S
C1951      F1956   1.376       .  S
C1951      F1957   1.382       .  S
C1954      F1958   1.378       .  S
C1954      F1959   1.380       .  S
C1954      F1960   1.378       .  S
C1961      C1962   1.401   1_655  A
C1961      C1966   1.399       .  A
C1961      H1968   1.061       .  S
C1963      C1964   1.426       .  A
C1963      C1970   1.517       .  S
C1964      H1969   1.084       .  S
C1965      C1966   1.413   1_455  A
C1966      C1967   1.515       .  S
C1967      F1971   1.380       .  S
C1967      F1972   1.376       .  S
C1967      F1973   1.366       .  S
C1970      F1974   1.380       .  S
C1970      F1975   1.382       .  S
C1970      F1976   1.381       .  S
C1977      C1978   1.412       .  A
C1977      C1982   1.420       .  A
C1977      H1984   1.081       .  S
C1979      C1980   1.390       .  A
C1979      C1986   1.489       .  S
C1980      H1985   1.084       .  S
C1981      C1982   1.411   1_655  A
C1982      C1983   1.506       .  S
C1983      F1987   1.358   1_455  S
C1983      F1988   1.382       .  S
C1983      F1989   1.383       .  S
C1986      F1990   1.356       .  S
C1986      F1991   1.377       .  S
C1986      F1992   1.387       .  S
C1993      C1994   1.362       .  A
C1993      C1998   1.373       .  A
C1993      H2000   1.064       .  S
C1994      C1995   1.395       .  A
C1995      C1996   1.407       .  A
C1995      C2002   1.526       .  S
C1996      C1997   1.433       .  A
C1996      H2001   1.070       .  S
C1997      C1998   1.436       .  A
C1998      C1999   1.480       .  S
C1999      F2003   1.374       .  S
C1999      F2004   1.373       .  S
C1999      F2005   1.377       .  S
C2002      F2006   1.382       .  S
C2002      F2007   1.378       .  S
C2002      F2008   1.384       .  S
C2009      C2010   1.415       .  A
C2009      C2014   1.412   1_565  A
C2009      H2016   1.063       .  S
C2010      C2011   1.428   1_565  A
C2011      C2018   1.519   1_545  S
C2012      C2013   1.420       .  A
C2012      H2017   1.082       .  S
C2014      C2015   1.524       .  S
C2015      F2019   1.374   1_545  S
C2015      F2020   1.377       .  S
C2015      F2021   1.373       .  S
C2018      F2022   1.382       .  S
C2018      F2023   1.376       .  S
C2025      C2026   1.399       .  A
C2025      C2030   1.421       .  A
C2025      H2032   1.083       .  S
C2026      C2027   1.413       .  A
C2027      C2028   1.415       .  A
C2028      C2029   1.407       .  A
C2028      H2033   1.076       .  S
C2029      C2030   1.434       .  A
C2030      C2031   1.513       .  S
C2031      F2035   1.360       .  S
C2031      F2036   1.376       .  S
C2031      F2037   1.373       .  S
C2034      F2038   1.375       .  S
C2034      F2039   1.378       .  S
C2034      F2040   1.381       .  S
C2041      C2042   1.405       .  A
C2041      H2048   1.059       .  S
C2043      C2044   1.429   1_545  A
C2043      C2050   1.515   1_545  S
C2044      C2045   1.445       .  A
C2044      H2049   1.064       .  S
C2045      C2046   1.403   1_565  A
C2046      C2047   1.497       .  S
C2047      F2052   1.378   1_545  S
C2047      F2053   1.375       .  S
C2050      F2054   1.376       .  S
C2050      F2055   1.381   1_565  S
C2050      F2056   1.371       .  S
C2057      C2058   1.410       .  A
C2057      C2062   1.431       .  A
C2057      H2064   1.083       .  S
C2058      C2059   1.427       .  A
C2059      C2060   1.415       .  A
C2059      C2066   1.513       .  S
C2060      C2061   1.406       .  A
C2061      C2062   1.434       .  A
C2062      C2063   1.513       .  S
C2063      F2067   1.382       .  S
C2063      F2068   1.362       .  S
C2063      F2069   1.372       .  S
C2066      F2070   1.377       .  S
C2066      F2071   1.376       .  S
C2066      F2072   1.363       .  S
C2073      C2074   1.415       .  A
C2073      C2078   1.413       .  A
C2073      H2080   1.070       .  S
C2074      C2075   1.439       .  A
C2075      C2076   1.442       .  A
C2075      C2082   1.524       .  S
C2076      C2077   1.418       .  A
C2076      H2081   1.082       .  S
C2077      C2078   1.417       .  A
C2078      C2079   1.518       .  S
C2079      F2083   1.374       .  S
C2079      F2084   1.373       .  S
C2079      F2085   1.380       .  S
C2082      F2086   1.375       .  S
C2082      F2087   1.377       .  S
C2082      F2088   1.385       .  S
