geometry optimzed in LAMMPS
_audit_creation_date              2020-11-30 
_audit_creation_method            'lammps2cif' 
_symmetry_space_group_name_H-M    'P1' 
_symmetry_Int_Tables_number       1 
_symmetry_cell_setting            triclinic 
loop_ 
_symmetry_equiv_pos_as_xyz 
  x,y,z 
_cell_length_a                    32.58002013693677 
_cell_length_b                    32.78680255051964 
_cell_length_c                    36.68676444489381 
_cell_angle_alpha                 93.48361799988486 
_cell_angle_beta                  88.91185311495651 
_cell_angle_gamma                 120.49127788622843 
loop_ 
_atom_site_label 
_atom_site_type_symbol 
_atom_site_fract_x 
_atom_site_fract_y 
_atom_site_fract_z 
_atom_site_charge 
C1          C  0.49786960  0.45940853  0.00583154     0.05680
C2          C  0.45457645  0.46029273  0.00738038     0.05680
C3          C  0.45500355  0.50391463  0.00652988     0.05680
C4          C  0.99875001  0.04656047  0.00145685     0.05680
C5          C  0.04169294  0.04649304  0.00650944     0.05680
C6          C  0.04118539  0.00289011  0.00819996     0.05680
O7          O  0.24531999  0.29422326  0.47665011    -0.69550
O8          O  0.22892567  0.28018524  0.07792419    -0.70530
O9          O  0.31811528  0.35388542  0.52802064    -0.59150
O10         O  0.19353804  0.23022079  0.52984632    -0.67560
O11         O  0.23168112  0.19101027  0.51690716    -0.67110
O12         O  0.35592366  0.31440128  0.51526095    -0.58370
O13         O  0.26882901  0.24176417  0.07198330    -0.70880
O14         O  0.28336580  0.25488292  0.46359831    -0.69660
Cu15       Cu  0.25430902  0.29325386  0.52996026     1.04560
Cu16       Cu  0.29494350  0.25107031  0.51615815     1.04330
C17         C  0.26029480  0.27427360  0.45362028     0.96650
C18         C  0.25094389  0.26211126  0.09197406     0.95790
C19         C  0.35632550  0.35352089  0.52013562     0.87930
C20         C  0.19316288  0.19144756  0.52262953     0.94200
O21         O  0.29754419  0.07514849  0.48023199    -0.69550
O22         O  0.27193957  0.05771618  0.07372592    -0.70530
O23         O  0.32715704  0.03962566  0.01893896    -0.59150
O24         O  0.20323233  0.03760435  0.01798589    -0.67560
O25         O  0.16393415  0.46229844  0.03163763    -0.67110
O26         O  0.29029438  0.46400874  0.03225156    -0.58370
O27         O  0.23415789  0.48216165  0.08658058    -0.70880
O28         O  0.25644022  0.49657951  0.47437937    -0.69660
Cu29       Cu  0.26589939  0.04039867  0.01871875     1.04560
Cu30       Cu  0.22523658  0.45974354  0.03331570     1.04330
C31         C  0.27533996  0.03705553  0.46014084     0.96650
C32         C  0.25415392  0.02573235  0.09710764     0.95790
C33         C  0.32836373  0.00214468  0.02403797     0.87930
C34         C  0.16417193  0.99978721  0.02366281     0.94200
C35         C  0.36168178  0.18074127  0.16961161     0.06520
C36         C  0.31278223  0.16334769  0.16397427    -0.09630
C37         C  0.29272820  0.18973283  0.17810953     0.04020
C38         C  0.32489348  0.23649990  0.19062468    -0.08150
C39         C  0.36779794  0.24595477  0.20590931     0.06510
C40         C  0.39056132  0.22806781  0.18347339    -0.07570
H41         H  0.29001578  0.12849165  0.15352257     0.12110
H42         H  0.33031793  0.26167312  0.17067179     0.09640
H43         H  0.42770960  0.24121748  0.18926681     0.09480
O44         O  0.03239023  0.26162073  0.27856913    -0.69550
O45         O  0.01202633  0.25072716  0.17273531    -0.70610
O46         O  0.95335667  0.20977334  0.23054713    -0.59150
O47         O  0.09253094  0.29711587  0.21649251    -0.67560
O48         O  0.10149140  0.23409585  0.21440719    -0.67110
O49         O  0.47094649  0.15197438  0.22437618    -0.58370
O50         O  0.02308149  0.18916707  0.16538539    -0.70880
O51         O  0.03863376  0.19718226  0.27690320    -0.69660
Cu52       Cu  0.02253130  0.25700175  0.22542760     1.04560
Cu53       Cu  0.03233039  0.18976339  0.22051580     1.04330
C54         C  0.03653794  0.23095762  0.29497711     0.96650
C55         C  0.01324895  0.21877343  0.15241385     0.95790
C56         C  0.44460805  0.17009757  0.22449952     0.87930
C57         C  0.11746502  0.27762230  0.20939580     0.94200
C58         C  0.23534774  0.44145508  0.17441040     0.06520
C59         C  0.21762771  0.40096070  0.15123760    -0.09630
C60         C  0.23321775  0.36965507  0.15832316     0.04020
C61         C  0.27833537  0.38758193  0.17448351    -0.08150
C62         C  0.29939280  0.43180060  0.19385396     0.06510
C63         C  0.28201653  0.46176646  0.18805848    -0.07570
H64         H  0.18133832  0.38597618  0.14108855     0.12110
H65         H  0.28898753  0.36303220  0.18206701     0.09640
H66         H  0.29558526  0.49258116  0.20645532     0.09480
O67         O  0.21112630  0.26512215  0.32645535    -0.69550
O68         O  0.21728353  0.26880296  0.21813199    -0.70530
O69         O  0.19149454  0.19815661  0.26327654    -0.59150
O70         O  0.24115381  0.33899026  0.27544745    -0.67560
O71         O  0.31536556  0.35349641  0.28090183    -0.67110
O72         O  0.26651123  0.21659180  0.26994016    -0.58370
O73         O  0.29294501  0.28887060  0.22172447    -0.70880
O74         O  0.28619604  0.28150290  0.32943450    -0.69660
Cu75       Cu  0.21227469  0.26743678  0.27176697     1.04560
Cu76       Cu  0.29252769  0.28547966  0.27611326     1.04330
C77         C  0.24746061  0.27264383  0.34481379     0.96650
C78         C  0.25580121  0.27734371  0.20279128     0.95790
C79         C  0.22501233  0.18940063  0.25661173     0.87930
C80         C  0.28637268  0.36755279  0.27546511     0.94200
O81         O  0.30245100  0.05756489  0.33203228    -0.69550
O82         O  0.29797007  0.06192918  0.22371063    -0.70530
O83         O  0.34345282  0.13144029  0.28086492    -0.59150
O84         O  0.25621276  0.99078592  0.27277607    -0.67560
O85         O  0.19256730  0.49851282  0.27722210    -0.67110
O86         O  0.27925568  0.13857595  0.28416166    -0.58370
O87         O  0.23226326  0.06613378  0.22623600    -0.70880
O88         O  0.23873933  0.06533523  0.33754790    -0.69660
Cu89       Cu  0.30230264  0.06045532  0.27785468     1.04560
Cu90       Cu  0.23371031  0.06811473  0.28222498     1.04330
C91         C  0.27027123  0.05843287  0.35170746     0.96650
C92         C  0.26281298  0.06026171  0.20770210     0.95790
C93         C  0.32408920  0.15682345  0.28008489     0.87930
C94         C  0.21252975  0.47567198  0.26552490     0.94200
O95         O  0.07139087  0.28419199  0.42212868    -0.69550
O96         O  0.04017226  0.26832791  0.03577535    -0.70530
O97         O  0.06980088  0.23101881  0.48179273    -0.59150
O98         O  0.06969932  0.35615999  0.47435088    -0.67560
O99         O  0.49260501  0.31606651  0.47192936    -0.67110
O100        O  0.49208828  0.19236562  0.47962370    -0.58370
O101        O  0.46283382  0.22650862  0.02996961    -0.70880
O102        O  0.49705416  0.24582002  0.41928644    -0.69660
Cu103      Cu  0.07332562  0.29498155  0.47661790     1.04560
Cu104      Cu  0.49046892  0.25277121  0.47440507     1.04330
C105        C  0.03232067  0.25852174  0.40452178     0.96650
C106        C  0.99907895  0.24152068  0.04847452     0.95790
C107        C  0.02991029  0.19218170  0.48431261     0.87930
C108        C  0.02980770  0.35533059  0.47590112     0.94200
C109        C  0.30512300  0.41189989  0.25917996    -0.09880
C110        C  0.31264347  0.43158162  0.23107399    -0.11440
C111        C  0.20278172  0.44033208  0.20195846    -0.09880
C112        C  0.19357060  0.44578461  0.23315917    -0.11440
C113        C  0.99687775  0.22667781  0.08459534    -0.09880
C114        C  0.00306107  0.21786024  0.11464459    -0.11440
C115        C  0.03666310  0.23520817  0.33439923    -0.09880
C116        C  0.03401603  0.24508669  0.36643830    -0.11440
C117        C  0.16162001  0.30325419  0.19101878    -0.09880
C118        C  0.19572212  0.32740461  0.17288311    -0.11440
C119        C  0.35092219  0.20380690  0.26696763    -0.09880
C120        C  0.36411838  0.23174346  0.24318183    -0.11440
C121        C  0.24812459  0.16574437  0.19758388    -0.09880
C122        C  0.22401681  0.16210153  0.22414638    -0.11440
C123        C  0.40033251  0.14535908  0.20494185    -0.09880
C124        C  0.37576003  0.14937407  0.18301851    -0.11440
C125        C  0.25567600  0.03856663  0.13589431    -0.09880
C126        C  0.25681028  0.04826538  0.16858858    -0.11440
C127        C  0.26922134  0.04953524  0.38999304    -0.09880
C128        C  0.27094973  0.04120952  0.42153971    -0.11440
C129        C  0.25657321  0.27189378  0.16371267    -0.09880
C130        C  0.25550504  0.26588085  0.13094567    -0.11440
C131        C  0.25076827  0.27315434  0.41584114    -0.09880
C132        C  0.24579136  0.27193949  0.38347658    -0.11440
C133        C  0.11168424  0.11077433  0.51482816    -0.09880
C134        C  0.14866123  0.14771880  0.51946206    -0.11440
C135        C  0.40016571  0.39770366  0.51544801    -0.09880
C136        C  0.43673983  0.43453103  0.51047461    -0.11440
C137        C  0.02578317  0.11087957  0.49890441    -0.09880
C138        C  0.02843194  0.14811707  0.49183185    -0.11440
C139        C  0.02596694  0.43489199  0.49334182    -0.09880
C140        C  0.02829437  0.39937375  0.48388451    -0.11440
C141        C  0.12034484  0.00013594  0.01973354    -0.09880
C142        C  0.08502049  0.00247391  0.01444267    -0.11440
C143        C  0.41076894  0.00483337  0.01241367    -0.09880
C144        C  0.37310482  0.00303482  0.01874218    -0.11440
C145        C  0.52496591  0.47906924  0.50296816     0.05680
C146        C  0.48103351  0.47905467  0.50618791     0.05680
C147        C  0.48089085  0.52290007  0.50774507     0.05680
C148        C  0.02445526  0.06621128  0.50556975     0.05680
C149        C  0.06746706  0.06607134  0.50937914     0.05680
C150        C  0.06773422  0.02290443  0.50914589     0.05680
O151        O  0.21680808  0.27978201  0.97100525    -0.69550
O152        O  0.26452652  0.28825026  0.58258099    -0.70530
O153        O  0.28651538  0.34142425  0.02328257    -0.59150
O154        O  0.16129713  0.21529723  0.02402509    -0.67560
O155        O  0.20261018  0.17847299  0.01676223    -0.67110
O156        O  0.32449042  0.30120659  0.01607113    -0.58370
O157        O  0.30235958  0.24866281  0.57010214    -0.70880
O158        O  0.25652270  0.24142853  0.96213489    -0.69660
Cu159      Cu  0.22189120  0.28043814  0.02450343     1.04560
Cu160      Cu  0.26440704  0.23922576  0.01658542     1.04330
C161        C  0.23513228  0.26155022  0.94974725     0.96650
C162        C  0.28450318  0.26601408  0.59300700     0.95790
C163        C  0.32507824  0.34031925  0.01872773     0.87930
C164        C  0.16295294  0.17704682  0.01955564     0.94200
O165        O  0.25533227  0.01595797  0.96537753    -0.69550
O166        O  0.29895979  0.07285180  0.58950604    -0.70530
O167        O  0.36070961  0.07119712  0.53134618    -0.59150
O168        O  0.23461736  0.07146432  0.53505283    -0.67560
O169        O  0.19605013  0.49301839  0.53159929    -0.67110
O170        O  0.31923650  0.49292964  0.52675019    -0.58370
O171        O  0.25962014  0.49479067  0.58643729    -0.70880
O172        O  0.21726910  0.44077977  0.97984671    -0.69660
Cu173      Cu  0.29954164  0.07536227  0.53451874     1.04560
Cu174      Cu  0.25666738  0.49158211  0.52993054     1.04330
C175        C  0.23304165  0.97154236  0.95591675     0.96650
C176        C  0.27884979  0.03386943  0.60533569     0.95790
C177        C  0.35901563  0.03118168  0.52680767     0.87930
C178        C  0.19553719  0.03147072  0.53152797     0.94200
C179        C  0.35365302  0.21389850  0.73368205     0.06520
C180        C  0.30955688  0.18179699  0.71674281    -0.09630
C181        C  0.27727805  0.14119501  0.73468838     0.04020
C182        C  0.29176508  0.13199692  0.76704928    -0.08150
C183        C  0.33755532  0.16124028  0.78167099     0.06510
C184        C  0.36810562  0.20263283  0.76543209    -0.07570
H185        H  0.29851041  0.19076253  0.69235807     0.12110
H186        H  0.26478890  0.10506881  0.78297203     0.09640
H187        H  0.40303123  0.22612687  0.77765679     0.09480
O188        O  0.06951030  0.31551422  0.78404636    -0.69550
O189        O  0.07121326  0.32620395  0.67548715    -0.70610
O190        O  0.01390493  0.32767432  0.73112271    -0.59150
O191        O  0.12915120  0.31465459  0.72403077    -0.67560
O192        O  0.08602997  0.23647968  0.71407794    -0.67110
O193        O  0.46895316  0.24640649  0.72457316    -0.58370
O194        O  0.02645731  0.24756948  0.66822596    -0.70880
O195        O  0.02823621  0.23699843  0.77592065    -0.69660
Cu196      Cu  0.07305397  0.32381158  0.72956611     1.04560
Cu197      Cu  0.02682833  0.23971519  0.72116962     1.04330
C198        C  0.04650249  0.27457241  0.79708340     0.96650
C199        C  0.04701382  0.28838625  0.65532948     0.95790
C200        C  0.47194621  0.28677433  0.72518491     0.87930
C201        C  0.12528481  0.27541601  0.71229284     0.94200
C202        C  0.23130474  0.40548555  0.64641768     0.06520
C203        C  0.21336724  0.35922504  0.63180752    -0.09630
C204        C  0.22991733  0.33241000  0.64747769     0.04020
C205        C  0.27569169  0.35605535  0.66318332    -0.08150
C206        C  0.29764306  0.40425144  0.67370716     0.06510
C207        C  0.27793399  0.43003801  0.66120397    -0.07570
H208        H  0.17676529  0.34049269  0.62168558     0.12110
H209        H  0.28786910  0.33630669  0.67691511     0.09640
H210        H  0.29233199  0.46557824  0.67240724     0.09480
O211        O  0.21012003  0.27213664  0.81911249    -0.69550
O212        O  0.23286916  0.25838850  0.71217355    -0.70530
O213        O  0.18666477  0.19692029  0.76544521    -0.59150
O214        O  0.25436119  0.33735275  0.76115010    -0.67560
O215        O  0.32546741  0.34636283  0.77203679    -0.67110
O216        O  0.25704612  0.20598009  0.77952214    -0.58370
O217        O  0.30352693  0.26847658  0.72470624    -0.70880
O218        O  0.28187931  0.28251233  0.82986081    -0.69660
Cu219      Cu  0.21856263  0.26663842  0.76466332     1.04560
Cu220      Cu  0.29422978  0.27620547  0.77766734     1.04330
C221        C  0.24231221  0.27675389  0.84121544     0.96650
C222        C  0.27117871  0.26003032  0.70179784     0.95790
C223        C  0.21386830  0.18010298  0.76814013     0.87930
C224        C  0.29978966  0.36249406  0.76105749     0.94200
O225        O  0.25397705  0.94643878  0.82805708    -0.69550
O226        O  0.29218284  0.00360192  0.72986363    -0.70530
O227        O  0.32449630  0.03372926  0.80364771    -0.59150
O228        O  0.22182637  0.91605245  0.75200261    -0.67560
O229        O  0.17252762  0.44373120  0.75400281    -0.67110
O230        O  0.26835166  0.05165721  0.81558133    -0.58370
O231        O  0.24247318  0.03073724  0.73722157    -0.70880
O232        O  0.19663264  0.96431525  0.83149801    -0.69660
Cu233      Cu  0.27460062  0.97335271  0.77851448     1.04560
Cu234      Cu  0.21785139  0.99806437  0.78531039     1.04330
C235        C  0.22208050  0.95025670  0.84620157     0.96650
C236        C  0.27154138  0.02422043  0.71724570     0.95790
C237        C  0.31157289  0.06200154  0.81719959     0.87930
C238        C  0.18887394  0.41970653  0.73783481     0.94200
O239        O  0.05704179  0.28157327  0.92881151    -0.69550
O240        O  0.07158929  0.30231873  0.52996270    -0.70530
O241        O  0.04743083  0.21226538  0.97948502    -0.59150
O242        O  0.04515675  0.33727806  0.98830367    -0.67560
O243        O  0.46689689  0.29572784  0.98204015    -0.67110
O244        O  0.46913534  0.17278554  0.97118641    -0.58370
O245        O  0.49115514  0.26147780  0.52903005    -0.70880
O246        O  0.47749688  0.24130340  0.92049751    -0.69660
Cu247      Cu  0.05017728  0.27661227  0.98301269     1.04560
Cu248      Cu  0.46637350  0.23309355  0.97535810     1.04330
C249        C  0.02116938  0.26347848  0.90718388     0.96650
C250        C  0.03255774  0.28508662  0.54698515     0.95790
C251        C  0.00768127  0.17281751  0.97630499     0.87930
C252        C  0.00484182  0.33549999  0.98737162     0.94200
C253        C  0.32049238  0.40359776  0.73961855    -0.09880
C254        C  0.32065706  0.41687026  0.70946682    -0.11440
C255        C  0.19741364  0.41028174  0.66923038    -0.09880
C256        C  0.18146004  0.40979395  0.69922344    -0.11440
C257        C  0.03497346  0.28965103  0.58554105    -0.09880
C258        C  0.04128475  0.29129484  0.61765809    -0.11440
C259        C  0.03857225  0.27064483  0.83599670    -0.09880
C260        C  0.02948501  0.26709079  0.86828652    -0.11440
C261        C  0.16289189  0.27763588  0.68997698    -0.09880
C262        C  0.19388841  0.29408954  0.66746683    -0.11440
C263        C  0.34559390  0.11044848  0.82564837    -0.09880
C264        C  0.35256312  0.14538497  0.81153760    -0.11440
C265        C  0.22710709  0.12427854  0.73259085    -0.09880
C266        C  0.20237618  0.13630260  0.74905676    -0.11440
C267        C  0.42874061  0.28613311  0.71927114    -0.09880
C268        C  0.38692768  0.25840148  0.71969123    -0.11440
C269        C  0.27826165  0.03524008  0.64533170    -0.09880
C270        C  0.27702382  0.03483497  0.67867543    -0.11440
C271        C  0.22030706  0.94686830  0.88515123    -0.09880
C272        C  0.22515574  0.95580990  0.91779439    -0.11440
C273        C  0.27932677  0.25594459  0.66356855    -0.09880
C274        C  0.28459793  0.25900201  0.63110042    -0.11440
C275        C  0.23278368  0.26573897  0.91143667    -0.09880
C276        C  0.23388890  0.27209749  0.87943052    -0.11440
C277        C  0.08562779  0.09193384  0.01172202    -0.09880
C278        C  0.12007137  0.13128250  0.01630774    -0.11440
C279        C  0.37021682  0.38307263  0.01549323    -0.09880
C280        C  0.40928400  0.41707001  0.01142850    -0.11440
C281        C  0.00056725  0.09056460  0.99183949    -0.09880
C282        C  0.00489355  0.12795971  0.98308874    -0.11440
C283        C  0.99825520  0.41416491  0.99970055    -0.09880
C284        C  0.00168823  0.37866064  0.99403401    -0.11440
C285        C  0.15053520  0.02900800  0.52522192    -0.09880
C286        C  0.11238023  0.02454626  0.51724408    -0.11440
C287        C  0.43688054  0.02449146  0.51431062    -0.09880
C288        C  0.40216648  0.02863889  0.52067666    -0.11440
C289        C  0.49775990  0.95941172  0.00598688     0.05680
C290        C  0.45452956  0.96042357  0.00760816     0.05680
C291        C  0.45505641  0.00408214  0.00664644     0.05680
C292        C  0.99878935  0.54662866  0.00136544     0.05680
C293        C  0.04176993  0.54667286  0.00650918     0.05680
C294        C  0.04134912  0.50310512  0.00820198     0.05680
O295        O  0.24570204  0.79394928  0.47721217    -0.69550
O296        O  0.22882475  0.78016782  0.07860116    -0.70530
O297        O  0.31833174  0.85368319  0.52870911    -0.59150
O298        O  0.19371576  0.73011967  0.53044527    -0.67560
O299        O  0.23180420  0.69080866  0.51771511    -0.67110
O300        O  0.35616648  0.81418605  0.51615019    -0.58370
O301        O  0.26868468  0.74174991  0.07213417    -0.70880
O302        O  0.28373694  0.75455179  0.46440018    -0.69660
Cu303      Cu  0.25451441  0.79307128  0.53061208     1.04560
Cu304      Cu  0.29513086  0.75083182  0.51703509     1.04330
C305        C  0.26069405  0.77390528  0.45427595     0.96650
C306        C  0.25087184  0.76196292  0.09238827     0.95790
C307        C  0.35655240  0.85331618  0.52088481     0.87930
C308        C  0.19329617  0.69132091  0.52328646     0.94200
O309        O  0.29764545  0.57522117  0.48030324    -0.69550
O310        O  0.27213549  0.55789801  0.07369122    -0.70530
O311        O  0.32726375  0.53958997  0.01893743    -0.59150
O312        O  0.20345137  0.53780775  0.01791780    -0.67560
O313        O  0.16381206  0.96207046  0.03164606    -0.67110
O314        O  0.29031440  0.96403252  0.03220773    -0.58370
O315        O  0.23406879  0.98195513  0.08655428    -0.70880
O316        O  0.25629312  0.99651488  0.47412491    -0.69660
Cu317      Cu  0.26607348  0.54049214  0.01868061     1.04560
Cu318      Cu  0.22518282  0.95962642  0.03330085     1.04330
C319        C  0.27547265  0.53705513  0.46028815     0.96650
C320        C  0.25431446  0.52595719  0.09710730     0.95790
C321        C  0.32838089  0.50206544  0.02405494     0.87930
C322        C  0.16435930  0.50003759  0.02362899     0.94200
C323        C  0.36243481  0.68102948  0.16967055     0.06520
C324        C  0.31356792  0.66365832  0.16398661    -0.09630
C325        C  0.29341668  0.68989181  0.17823716     0.04020
C326        C  0.32551651  0.73661234  0.19091384    -0.08150
C327        C  0.36843941  0.74606559  0.20615585     0.06510
C328        C  0.39125476  0.72831514  0.18364027    -0.07570
H329        H  0.29076664  0.62866848  0.15330627     0.12110
H330        H  0.33086407  0.76193094  0.17111151     0.09640
H331        H  0.42841209  0.74149023  0.18942432     0.09480
O332        O  0.03249311  0.76167833  0.27853579    -0.69550
O333        O  0.01258648  0.75110729  0.17266161    -0.70610
O334        O  0.95363343  0.71012477  0.23029097    -0.59150
O335        O  0.09295490  0.79723424  0.21663127    -0.67560
O336        O  0.10169998  0.73408529  0.21452253    -0.67110
O337        O  0.47163761  0.65227411  0.22444990    -0.58370
O338        O  0.02343119  0.68940986  0.16533681    -0.70880
O339        O  0.03858113  0.69714985  0.27686055    -0.69660
Cu340      Cu  0.02287968  0.75723396  0.22537083     1.04560
Cu341      Cu  0.03247622  0.68987023  0.22047147     1.04330
C342        C  0.03649977  0.73092845  0.29493907     0.96650
C343        C  0.01373660  0.71910467  0.15235138     0.95790
C344        C  0.44522690  0.67031776  0.22461660     0.87930
C345        C  0.11783432  0.77766370  0.20960851     0.94200
C346        C  0.23622454  0.94147491  0.17497383     0.06520
C347        C  0.21877243  0.90107038  0.15172035    -0.09630
C348        C  0.23416484  0.86967887  0.15903965     0.04020
C349        C  0.27908263  0.88750636  0.17551581    -0.08150
C350        C  0.29994712  0.93164966  0.19499588     0.06510
C351        C  0.28268614  0.96167842  0.18904742    -0.07570
H352        H  0.18262798  0.88615973  0.14126878     0.12110
H353        H  0.28958487  0.86287876  0.18321184     0.09640
H354        H  0.29603729  0.99241187  0.20753247     0.09480
O355        O  0.21130732  0.76413572  0.32702530    -0.69550
O356        O  0.21733781  0.76822371  0.21864785    -0.70530
O357        O  0.19175883  0.69741497  0.26359241    -0.59150
O358        O  0.24114319  0.83819052  0.27620801    -0.67560
O359        O  0.31539528  0.85277942  0.28155633    -0.67110
O360        O  0.26680237  0.71596957  0.27025787    -0.58370
O361        O  0.29301782  0.78836284  0.22219003    -0.70880
O362        O  0.28642733  0.78067031  0.32992043    -0.69660
Cu363      Cu  0.21238789  0.76664417  0.27231306     1.04560
Cu364      Cu  0.29268154  0.78480911  0.27658446     1.04330
C365        C  0.24769964  0.77173637  0.34535468     0.96650
C366        C  0.25586066  0.77683364  0.20326791     0.95790
C367        C  0.22536185  0.68881226  0.25682411     0.87930
C368        C  0.28635250  0.86682090  0.27629371     0.94200
O369        O  0.30266360  0.55717389  0.33202485    -0.69550
O370        O  0.29836480  0.56216150  0.22370373    -0.70530
O371        O  0.34394976  0.63132743  0.28104550    -0.59150
O372        O  0.25636856  0.49071997  0.27250684    -0.67560
O373        O  0.19227806  0.99838054  0.27716882    -0.67110
O374        O  0.27985753  0.63863364  0.28433353    -0.58370
O375        O  0.23265033  0.56634066  0.22634773    -0.70880
O376        O  0.23919349  0.56533299  0.33763993    -0.69660
Cu377      Cu  0.30261432  0.56035523  0.27783315     1.04560
Cu378      Cu  0.23415550  0.56821773  0.28233615     1.04330
C379        C  0.27059761  0.55820871  0.35175128     0.96650
C380        C  0.26319178  0.56053532  0.20774415     0.95790
C381        C  0.32468161  0.65679757  0.28027496     0.87930
C382        C  0.21238494  0.97560964  0.26565038     0.94200
O383        O  0.07118357  0.78407076  0.42207558    -0.69550
O384        O  0.04028343  0.76841083  0.03558376    -0.70530
O385        O  0.06967795  0.73097611  0.48177708    -0.59150
O386        O  0.06944291  0.85605125  0.47425603    -0.67560
O387        O  0.49282155  0.81617621  0.47181527    -0.67110
O388        O  0.49231262  0.69243229  0.47924693    -0.58370
O389        O  0.46275238  0.72652584  0.03014636    -0.70880
O390        O  0.49762304  0.74622466  0.41905659    -0.69660
Cu391      Cu  0.07312701  0.79490443  0.47655850     1.04560
Cu392      Cu  0.49067949  0.75284896  0.47413729     1.04330
C393        C  0.03211404  0.75836963  0.40447495     0.96650
C394        C  0.99926312  0.74162984  0.04840495     0.95790
C395        C  0.02981465  0.69211413  0.48431476     0.87930
C396        C  0.02953892  0.85519704  0.47580762     0.94200
C397        C  0.30508672  0.91134362  0.26029570    -0.09880
C398        C  0.31282596  0.93126011  0.23228889    -0.11440
C399        C  0.20326948  0.94027074  0.20219031    -0.09880
C400        C  0.19367326  0.94567907  0.23328398    -0.11440
C401        C  0.99725781  0.72691678  0.08454025    -0.09880
C402        C  0.00354751  0.71818245  0.11458579    -0.11440
C403        C  0.03650374  0.73509566  0.33435761    -0.09880
C404        C  0.03381418  0.74493720  0.36639545    -0.11440
C405        C  0.16216154  0.80330199  0.19144791    -0.09880
C406        C  0.19644441  0.82746067  0.17347605    -0.11440
C407        C  0.35159183  0.70378318  0.26716438    -0.09880
C408        C  0.36478045  0.73174530  0.24339518    -0.11440
C409        C  0.24876080  0.66574536  0.19763552    -0.09880
C410        C  0.22455627  0.66186602  0.22418739    -0.11440
C411        C  0.40097991  0.64555780  0.20502116    -0.09880
C412        C  0.37647096  0.64962410  0.18306939    -0.11440
C413        C  0.25590302  0.53886932  0.13590267    -0.09880
C414        C  0.25712415  0.54861140  0.16860631    -0.11440
C415        C  0.26952928  0.54930730  0.39004926    -0.09880
C416        C  0.27115769  0.54105798  0.42163929    -0.11440
C417        C  0.25663376  0.77144791  0.16415842    -0.09880
C418        C  0.25554967  0.76549069  0.13137010    -0.11440
C419        C  0.25117743  0.77257728  0.41644108    -0.09880
C420        C  0.24613880  0.77114337  0.38405002    -0.11440
C421        C  0.11172943  0.61080942  0.51519491    -0.09880
C422        C  0.14874904  0.64766838  0.51997664    -0.11440
C423        C  0.40035452  0.89751259  0.51605810    -0.09880
C424        C  0.43682480  0.93438632  0.51092996    -0.11440
C425        C  0.02582982  0.61087606  0.49896792    -0.09880
C426        C  0.02840568  0.64808002  0.49186944    -0.11440
C427        C  0.02571234  0.93478426  0.49323280    -0.09880
C428        C  0.02800701  0.89924074  0.48378232    -0.11440
C429        C  0.12056440  0.50045456  0.01971930    -0.09880
C430        C  0.08522668  0.50277697  0.01444972    -0.11440
C431        C  0.41068079  0.50457376  0.01235105    -0.09880
C432        C  0.37305484  0.50283232  0.01872921    -0.11440
C433        C  0.52501295  0.97906382  0.50322112     0.05680
C434        C  0.48103589  0.97895672  0.50647540     0.05680
C435        C  0.48079772  0.02276028  0.50794958     0.05680
C436        C  0.02453311  0.56621940  0.50566032     0.05680
C437        C  0.06755329  0.56611657  0.50959055     0.05680
C438        C  0.06787627  0.52297689  0.50934379     0.05680
O439        O  0.21643766  0.78091817  0.97183788    -0.69550
O440        O  0.26452171  0.78805694  0.58334123    -0.70530
O441        O  0.28635640  0.84195490  0.02417637    -0.59150
O442        O  0.16104529  0.71569572  0.02456648    -0.67560
O443        O  0.20241326  0.67900114  0.01668138    -0.67110
O444        O  0.32422752  0.80169110  0.01641823    -0.58370
O445        O  0.30233893  0.74842834  0.57104649    -0.70880
O446        O  0.25618486  0.74269783  0.96230767    -0.69660
Cu447      Cu  0.22166225  0.78093656  0.02526193     1.04560
Cu448      Cu  0.26415708  0.73977954  0.01670950     1.04330
C449        C  0.23482949  0.76306198  0.95027487     0.96650
C450        C  0.28437181  0.76574218  0.59388437     0.95790
C451        C  0.32487817  0.84081723  0.01937056     0.87930
C452        C  0.16274160  0.67748588  0.01974844     0.94200
O453        O  0.25551371  0.51599412  0.96533418    -0.69550
O454        O  0.29942995  0.57337278  0.58961263    -0.70530
O455        O  0.36096535  0.57150784  0.53137005    -0.59150
O456        O  0.23484095  0.57171621  0.53520105    -0.67560
O457        O  0.19578720  0.99276378  0.53126572    -0.67110
O458        O  0.31896222  0.99262659  0.52652055    -0.58370
O459        O  0.25911663  0.99426594  0.58613154    -0.70880
O460        O  0.21721362  0.94072681  0.97985825    -0.69660
Cu461      Cu  0.29979496  0.57565283  0.53460345     1.04560
Cu462      Cu  0.25637912  0.99129352  0.52963985     1.04330
C463        C  0.23319971  0.47157422  0.95588048     0.96650
C464        C  0.27945361  0.53446857  0.60554803     0.95790
C465        C  0.35927156  0.53148795  0.52689760     0.87930
C466        C  0.19576546  0.53170300  0.53177504     0.94200
C467        C  0.35062089  0.71054791  0.73545804     0.06520
C468        C  0.30535591  0.67848474  0.72029640    -0.09630
C469        C  0.27326709  0.63980983  0.74022851     0.04020
C470        C  0.28845593  0.63311050  0.77338085    -0.08150
C471        C  0.33536598  0.66167665  0.78601607     0.06510
C472        C  0.36617214  0.70077037  0.76737513    -0.07570
H473        H  0.29352810  0.68630660  0.69570871     0.12110
H474        H  0.26178746  0.60870761  0.79115895     0.09640
H475        H  0.40216224  0.72370841  0.77791967     0.09480
O476        O  0.06899223  0.81511153  0.78395221    -0.69550
O477        O  0.07090976  0.82602026  0.67543069    -0.70610
O478        O  0.01371362  0.82776600  0.73105124    -0.59150
O479        O  0.12851532  0.81396246  0.72394533    -0.67560
O480        O  0.08507076  0.73581980  0.71392413    -0.67110
O481        O  0.46751370  0.74336966  0.72387410    -0.58370
O482        O  0.02585251  0.74741786  0.66809090    -0.70880
O483        O  0.02738114  0.73661076  0.77575339    -0.69660
Cu484      Cu  0.07265320  0.82351094  0.72949348     1.04560
Cu485      Cu  0.02608557  0.73944310  0.72101328     1.04330
C486        C  0.04578770  0.77415772  0.79694701     0.96650
C487        C  0.04660702  0.78826178  0.65523871     0.95790
C488        C  0.46938414  0.78320238  0.72434782     0.87930
C489        C  0.12443223  0.77464918  0.71214964     0.94200
C490        C  0.23019781  0.90489776  0.64632860     0.06520
C491        C  0.21208403  0.85856827  0.63183040    -0.09630
C492        C  0.22880319  0.83180780  0.64735653     0.04020
C493        C  0.27468126  0.85549677  0.66289643    -0.08150
C494        C  0.29694638  0.90382608  0.67304002     0.06510
C495        C  0.27702210  0.92951545  0.66074181    -0.07570
H496        H  0.17538760  0.83981807  0.62191782     0.12110
H497        H  0.28697010  0.83582321  0.67659877     0.09640
H498        H  0.29163984  0.96514217  0.67180698     0.09480
O499        O  0.21031206  0.77524710  0.81975506    -0.69550
O500        O  0.23286123  0.75956670  0.71293780    -0.70530
O501        O  0.18554977  0.69922673  0.76686706    -0.59150
O502        O  0.25524829  0.83937901  0.76119948    -0.67560
O503        O  0.32600684  0.84742255  0.77180006    -0.67110
O504        O  0.25537710  0.70740103  0.78154066    -0.58370
O505        O  0.30278211  0.76805103  0.72575055    -0.70880
O506        O  0.28188598  0.78523888  0.83062601    -0.69660
Cu507      Cu  0.21859438  0.76885658  0.76532872     1.04560
Cu508      Cu  0.29376609  0.77739711  0.77856222     1.04330
C509        C  0.24242263  0.77980046  0.84192751     0.96650
C510        C  0.27073011  0.76011610  0.70272327     0.95790
C511        C  0.21196989  0.68174178  0.77059528     0.87930
C512        C  0.30068409  0.86389927  0.76069773     0.94200
O513        O  0.25481574  0.44678668  0.82803826    -0.69550
O514        O  0.29351832  0.50470076  0.73010480    -0.70530
O515        O  0.32564641  0.53427698  0.80410535    -0.59150
O516        O  0.22302965  0.41696651  0.75177537    -0.67560
O517        O  0.17137331  0.94285992  0.75424675    -0.67110
O518        O  0.26916987  0.55175204  0.81571603    -0.58370
O519        O  0.24384246  0.53188485  0.73751766    -0.70880
O520        O  0.19733829  0.46447335  0.83133059    -0.69660
Cu521      Cu  0.27574188  0.47407838  0.77860326     1.04560
Cu522      Cu  0.21887542  0.49862797  0.78531105     1.04330
C523        C  0.22276694  0.45043943  0.84610343     0.96650
C524        C  0.27288157  0.52534718  0.71751795     0.95790
C525        C  0.31236110  0.56218182  0.81782641     0.87930
C526        C  0.18773603  0.91886492  0.73803690     0.94200
O527        O  0.05659497  0.78137415  0.92858623    -0.69550
O528        O  0.07138837  0.80228588  0.52989393    -0.70530
O529        O  0.04729378  0.71222896  0.97926822    -0.59150
O530        O  0.04494243  0.83718479  0.98810476    -0.67560
O531        O  0.46650935  0.79557502  0.98218868    -0.67110
O532        O  0.46871359  0.67258047  0.97137237    -0.58370
O533        O  0.49097209  0.76117266  0.52873945    -0.70880
O534        O  0.47670488  0.74087804  0.92061535    -0.69660
Cu535      Cu  0.05000598  0.77655246  0.98279652     1.04560
Cu536      Cu  0.46595158  0.73290330  0.97552450     1.04330
C537        C  0.02062299  0.76320051  0.90705780     0.96650
C538        C  0.03235178  0.78504469  0.54690896     0.95790
C539        C  0.00754493  0.67277051  0.97618951     0.87930
C540        C  0.00460170  0.83536340  0.98729320     0.94200
C541        C  0.32150347  0.90447413  0.73870390    -0.09880
C542        C  0.32097713  0.91704520  0.70841430    -0.11440
C543        C  0.19654310  0.90981293  0.66936904    -0.09880
C544        C  0.18058098  0.90924890  0.69937658    -0.11440
C545        C  0.03475123  0.78965134  0.58545567    -0.09880
C546        C  0.04099697  0.79127028  0.61757472    -0.11440
C547        C  0.03781800  0.77020673  0.83584919    -0.09880
C548        C  0.02877297  0.76669913  0.86814351    -0.11440
C549        C  0.16191812  0.77671678  0.68975686    -0.09880
C550        C  0.19289917  0.79326341  0.66724070    -0.11440
C551        C  0.34591815  0.61042632  0.82759208    -0.09880
C552        C  0.35176267  0.64587274  0.81504389    -0.11440
C553        C  0.22313640  0.62292908  0.73811048    -0.09880
C554        C  0.19902518  0.63652846  0.75347805    -0.11440
C555        C  0.42558724  0.78132361  0.71835136    -0.09880
C556        C  0.38381834  0.75370406  0.71966020    -0.11440
C557        C  0.27917374  0.53602171  0.64555708    -0.09880
C558        C  0.27820664  0.53581384  0.67891528    -0.11440
C559        C  0.22079947  0.44694363  0.88506761    -0.09880
C560        C  0.22545624  0.45583046  0.91773464    -0.11440
C561        C  0.27884278  0.75553852  0.66450966    -0.09880
C562        C  0.28420535  0.75859070  0.63202071    -0.11440
C563        C  0.23265331  0.76805091  0.91205415    -0.09880
C564        C  0.23389463  0.77502435  0.88014594    -0.11440
C565        C  0.08561931  0.59220169  0.01180661    -0.09880
C566        C  0.11991790  0.63165239  0.01644396    -0.11440
C567        C  0.37005305  0.88351525  0.01611131    -0.09880
C568        C  0.40919359  0.91732968  0.01188297    -0.11440
C569        C  0.00053277  0.59057896  0.99171780    -0.09880
C570        C  0.00481609  0.62794703  0.98295943    -0.11440
C571        C  0.99798106  0.91398428  0.99968799    -0.09880
C572        C  0.00142228  0.87849547  0.99398488    -0.11440
C573        C  0.15072533  0.52918017  0.52547219    -0.09880
C574        C  0.11254376  0.52466208  0.51748376    -0.11440
C575        C  0.43704271  0.52472317  0.51419042    -0.09880
C576        C  0.40238863  0.52893030  0.52065900    -0.11440
C577        C  0.99773973  0.45927151  0.00475473     0.05680
C578        C  0.95450252  0.46024283  0.00631946     0.05680
C579        C  0.95499347  0.50386968  0.00532848     0.05680
C580        C  0.49888190  0.04682750  0.00266971     0.05680
C581        C  0.54182684  0.04681432  0.00790995     0.05680
C582        C  0.54137500  0.00322792  0.00960972     0.05680
O583        O  0.74652716  0.29379848  0.47664835    -0.69550
O584        O  0.72943047  0.28159329  0.07827699    -0.70530
O585        O  0.81835370  0.35353113  0.52852317    -0.59150
O586        O  0.69393566  0.23001295  0.52972873    -0.67560
O587        O  0.73209456  0.19068296  0.51740999    -0.67110
O588        O  0.85650512  0.31425675  0.51634880    -0.58370
O589        O  0.76937502  0.24318626  0.07271526    -0.70880
O590        O  0.78479861  0.25450185  0.46437917    -0.69660
Cu591      Cu  0.75468573  0.29290987  0.53012278     1.04560
Cu592      Cu  0.79553303  0.25078074  0.51698310     1.04330
C593        C  0.76194855  0.27388712  0.45397053     0.96650
C594        C  0.75172958  0.26393119  0.09250688     0.95790
C595        C  0.85668991  0.35330484  0.52096470     0.87930
C596        C  0.69353815  0.19121455  0.52271264     0.94200
O597        O  0.79974545  0.07854947  0.48154088    -0.69550
O598        O  0.77355835  0.05858906  0.07401192    -0.70530
O599        O  0.82733840  0.03976813  0.01844884    -0.59150
O600        O  0.70355967  0.03818592  0.01913748    -0.67560
O601        O  0.66436625  0.46284387  0.03288763    -0.67110
O602        O  0.79061428  0.46427824  0.03176914    -0.58370
O603        O  0.73586677  0.48299467  0.08689542    -0.70880
O604        O  0.75853103  0.49978849  0.47349678    -0.69660
Cu605      Cu  0.76619184  0.04078388  0.01905468     1.04560
Cu606      Cu  0.72565588  0.46017051  0.03372086     1.04330
C607        C  0.77812111  0.04111662  0.46069077     0.96650
C608        C  0.75631902  0.02683834  0.09759107     0.95790
C609        C  0.82855075  0.00229186  0.02355842     0.87930
C610        C  0.66456454  0.00044286  0.02513173     0.94200
C611        C  0.85779415  0.17843716  0.16367800     0.06520
C612        C  0.80899870  0.16274917  0.15929312    -0.09630
C613        C  0.79112559  0.19072727  0.17411497     0.04020
C614        C  0.82502175  0.23732644  0.18578584    -0.08150
C615        C  0.86804923  0.24555747  0.19980051     0.06510
C616        C  0.88858225  0.22575522  0.17681824    -0.07570
H617        H  0.78422324  0.12753283  0.14961522     0.12110
H618        H  0.83069127  0.26238735  0.16568076     0.09640
H619        H  0.92558976  0.23742445  0.18187649     0.09480
O620        O  0.54187022  0.26741982  0.27883922    -0.69550
O621        O  0.51696101  0.25433990  0.17352485    -0.70610
O622        O  0.46115664  0.21418099  0.23297019    -0.59150
O623        O  0.59938156  0.30232141  0.21533968    -0.67560
O624        O  0.60925894  0.23987533  0.21335726    -0.67110
O625        O  0.96270369  0.14720589  0.22301901    -0.58370
O626        O  0.52941200  0.19369634  0.16570145    -0.70880
O627        O  0.54803638  0.20292220  0.27688625    -0.69660
Cu628      Cu  0.52983408  0.26177026  0.22597268     1.04560
Cu629      Cu  0.54036180  0.19501202  0.22061510     1.04330
C630        C  0.54610998  0.23670777  0.29508914     0.96650
C631        C  0.51829022  0.22254348  0.15305507     0.95790
C632        C  0.93687317  0.16577932  0.22170691     0.87930
C633        C  0.62464832  0.28323648  0.20804633     0.94200
C634        C  0.74579683  0.44779565  0.17765040     0.06520
C635        C  0.72888098  0.40892634  0.15286569    -0.09630
C636        C  0.74285268  0.37627498  0.15944611     0.04020
C637        C  0.78702339  0.39236899  0.17673222    -0.08150
C638        C  0.80833280  0.43583558  0.19725901     0.06510
C639        C  0.79158579  0.46658554  0.19269039    -0.07570
H640        H  0.69335407  0.39534536  0.14155155     0.12110
H641        H  0.79663638  0.36681583  0.18368883     0.09640
H642        H  0.80457949  0.49613873  0.21240375     0.09480
O643        O  0.71492664  0.26629014  0.32689825    -0.69550
O644        O  0.72125785  0.27310088  0.21911316    -0.70530
O645        O  0.69298489  0.20047683  0.26257555    -0.59150
O646        O  0.74787387  0.34196953  0.27756520    -0.67560
O647        O  0.82093951  0.35304182  0.28187225    -0.67110
O648        O  0.76686087  0.21549971  0.26914548    -0.58370
O649        O  0.79572767  0.28908091  0.22184065    -0.70880
O650        O  0.78905453  0.27984436  0.32949023    -0.69660
Cu651      Cu  0.71633333  0.27019839  0.27250757     1.04560
Cu652      Cu  0.79542282  0.28462089  0.27616791     1.04330
C653        C  0.75076731  0.27222534  0.34503217     0.96650
C654        C  0.75897133  0.27998848  0.20333165     0.95790
C655        C  0.72538914  0.19026944  0.25528241     0.87930
C656        C  0.79333062  0.36901256  0.27742402     0.94200
O657        O  0.80878765  0.06511369  0.33305249    -0.69550
O658        O  0.80148711  0.06391482  0.22437146    -0.70530
O659        O  0.84814021  0.13625903  0.27935231    -0.59150
O660        O  0.76176295  0.99560058  0.27601668    -0.67560
O661        O  0.69759258  0.50256199  0.27810858    -0.67110
O662        O  0.78379128  0.14307577  0.28304117    -0.58370
O663        O  0.73655848  0.06943596  0.22640637    -0.70880
O664        O  0.74405274  0.07121393  0.33787320    -0.69660
Cu665      Cu  0.80737511  0.06532583  0.27869216     1.04560
Cu666      Cu  0.73856432  0.07264945  0.28241464     1.04330
C667        C  0.77604089  0.06530572  0.35242173     0.96650
C668        C  0.76671938  0.06269477  0.20812148     0.95790
C669        C  0.82841899  0.16123471  0.27784073     0.87930
C670        C  0.71815482  0.47985994  0.26760743     0.94200
O671        O  0.57601842  0.28670892  0.42332854    -0.69550
O672        O  0.54173470  0.26943679  0.03579284    -0.70530
O673        O  0.57103167  0.23144854  0.48262300    -0.59150
O674        O  0.57142077  0.35697622  0.47560662    -0.67560
O675        O  0.99079485  0.31540110  0.47307088    -0.67110
O676        O  0.99080612  0.19197004  0.48123857    -0.58370
O677        O  0.96140833  0.22543773  0.02878680    -0.70880
O678        O  0.99232245  0.24339724  0.42058945    -0.69660
Cu679      Cu  0.57495034  0.29569095  0.47776425     1.04560
Cu680      Cu  0.98878370  0.25217889  0.47583783     1.04330
C681        C  0.53792408  0.26156092  0.40449360     0.96650
C682        C  0.50098216  0.24296357  0.04913872     0.95790
C683        C  0.53097082  0.19249351  0.48389684     0.87930
C684        C  0.53143768  0.35600326  0.47595976     0.94200
C685        C  0.81366208  0.41396090  0.26193397    -0.09880
C686        C  0.82169233  0.43425854  0.23411786    -0.11440
C687        C  0.71181915  0.44547195  0.20432213    -0.09880
C688        C  0.70075414  0.45008657  0.23510046    -0.11440
C689        C  0.49972535  0.22899093  0.08542586    -0.09880
C690        C  0.50686160  0.22095541  0.11547033    -0.11440
C691        C  0.54578362  0.24048948  0.33449429    -0.09880
C692        C  0.54173201  0.24944094  0.36647313    -0.11440
C693        C  0.66881810  0.30928936  0.18968852    -0.09880
C694        C  0.70378769  0.33377876  0.17245192    -0.11440
C695        C  0.85416423  0.20697904  0.26246348    -0.09880
C696        C  0.86603530  0.23309603  0.23745981    -0.11440
C697        C  0.74732190  0.16822613  0.19473125    -0.09880
C698        C  0.72391462  0.16447187  0.22176401    -0.11440
C699        C  0.89410577  0.14193046  0.20017060    -0.09880
C700        C  0.87069151  0.14633063  0.17739279    -0.11440
C701        C  0.75898043  0.04006761  0.13639752    -0.09880
C702        C  0.76077491  0.05037071  0.16904614    -0.11440
C703        C  0.77444337  0.05608386  0.39070855    -0.09880
C704        C  0.77508914  0.04670219  0.42213998    -0.11440
C705        C  0.75892382  0.27502390  0.16419537    -0.09880
C706        C  0.75697702  0.26865591  0.13143616    -0.11440
C707        C  0.75326535  0.27277900  0.41607868    -0.09880
C708        C  0.74901019  0.27145110  0.38365020    -0.11440
C709        C  0.61175952  0.11088979  0.51462187    -0.09880
C710        C  0.64893200  0.14761972  0.51932018    -0.11440
C711        C  0.90036209  0.39760346  0.51626974    -0.09880
C712        C  0.93667027  0.43461648  0.51121010    -0.11440
C713        C  0.52580263  0.11071600  0.49850761    -0.09880
C714        C  0.52893973  0.14816510  0.49141341    -0.11440
C715        C  0.52651452  0.43503631  0.49314554    -0.09880
C716        C  0.52942387  0.39979593  0.48386512    -0.11440
C717        C  0.62065654  0.00072671  0.02139097    -0.09880
C718        C  0.58523639  0.00289535  0.01603655    -0.11440
C719        C  0.91070146  0.00467134  0.01137763    -0.09880
C720        C  0.87314747  0.00301332  0.01789023    -0.11440
C721        C  0.02472303  0.47904125  0.50337641     0.05680
C722        C  0.98088342  0.47913353  0.50677615     0.05680
C723        C  0.98082492  0.52301473  0.50839443     0.05680
C724        C  0.52447168  0.06606901  0.50523697     0.05680
C725        C  0.56756701  0.06613773  0.50919451     0.05680
C726        C  0.56804800  0.02312157  0.50909541     0.05680
O727        O  0.71641487  0.27926733  0.97129106    -0.69550
O728        O  0.76426014  0.28788191  0.58290572    -0.70530
O729        O  0.78650774  0.34176965  0.02298856    -0.59150
O730        O  0.66134863  0.21573409  0.02495244    -0.67560
O731        O  0.70265501  0.17886284  0.01811253    -0.67110
O732        O  0.82444396  0.30147689  0.01615869    -0.58370
O733        O  0.80230597  0.24839609  0.57088975    -0.70880
O734        O  0.75606988  0.24079924  0.96282037    -0.69660
Cu735      Cu  0.72192041  0.28085314  0.02481114     1.04560
Cu736      Cu  0.76441758  0.23957685  0.01732107     1.04330
C737        C  0.73459151  0.26071054  0.95021710     0.96650
C738        C  0.78418949  0.26569079  0.59356082     0.95790
C739        C  0.82503331  0.34059081  0.01844732     0.87930
C740        C  0.66300228  0.17745646  0.02083109     0.94200
O741        O  0.75442182  0.01590932  0.96581948    -0.69550
O742        O  0.79852864  0.07278887  0.59052162    -0.70530
O743        O  0.86152033  0.07261522  0.53278322    -0.59150
O744        O  0.73526139  0.07284293  0.53582915    -0.67560
O745        O  0.69658328  0.49391455  0.53024542    -0.67110
O746        O  0.81954555  0.49386591  0.52623369    -0.58370
O747        O  0.75852440  0.49391170  0.58547233    -0.70880
O748        O  0.71644285  0.44080544  0.98034407    -0.69660
Cu749      Cu  0.80033787  0.07689610  0.53570447     1.04560
Cu750      Cu  0.75712810  0.49261725  0.52892811     1.04330
C751        C  0.73187556  0.97143612  0.95656969     0.96650
C752        C  0.77803145  0.03336254  0.60571200     0.95790
C753        C  0.85971254  0.03258307  0.52762766     0.87930
C754        C  0.69629277  0.03281917  0.53158337     0.94200
C755        C  0.85587878  0.21539739  0.73409985     0.06520
C756        C  0.81226046  0.18362932  0.71637107    -0.09630
C757        C  0.77985209  0.14214088  0.73324950     0.04020
C758        C  0.79397077  0.13159122  0.76510096    -0.08150
C759        C  0.83921939  0.16073192  0.78063733     0.06510
C760        C  0.86982339  0.20308328  0.76557957    -0.07570
H761        H  0.80164561  0.19333234  0.69216945     0.12110
H762        H  0.76687594  0.10363688  0.78010843     0.09640
H763        H  0.90433943  0.22648613  0.77846970     0.09480
O764        O  0.56669649  0.31311752  0.78375696    -0.69550
O765        O  0.56836691  0.32263894  0.67503958    -0.70610
O766        O  0.51146732  0.32524630  0.73035987    -0.59150
O767        O  0.62608842  0.31112298  0.72398455    -0.67560
O768        O  0.58251017  0.23289939  0.71450943    -0.67110
O769        O  0.97180456  0.24884063  0.72491407    -0.58370
O770        O  0.52322234  0.24400783  0.66819948    -0.70880
O771        O  0.52494084  0.23457637  0.77608779    -0.69660
Cu772      Cu  0.57029565  0.32083494  0.72917138     1.04560
Cu773      Cu  0.52359979  0.23672422  0.72125486     1.04330
C774        C  0.54347939  0.27234136  0.79704540     0.96650
C775        C  0.54377979  0.28470044  0.65509616     0.95790
C776        C  0.97447795  0.28908495  0.72599923     0.87930
C777        C  0.62194144  0.27163330  0.71263503     0.94200
C778        C  0.72572585  0.40166410  0.64718201     0.06520
C779        C  0.70782472  0.35525670  0.63292832    -0.09630
C780        C  0.72550592  0.32905170  0.64804183     0.04020
C781        C  0.77150161  0.35333342  0.66335864    -0.08150
C782        C  0.79306200  0.40151390  0.67370624     0.06510
C783        C  0.77262797  0.42670476  0.66140748    -0.07570
H784        H  0.67097117  0.33605991  0.62336923     0.12110
H785        H  0.78436506  0.33411438  0.67693452     0.09640
H786        H  0.78701582  0.46227909  0.67233795     0.09480
O787        O  0.70897368  0.27000821  0.81953577    -0.69550
O788        O  0.73206917  0.25703692  0.71266555    -0.70530
O789        O  0.68693656  0.19519022  0.76580126    -0.59150
O790        O  0.75209718  0.33545372  0.76163932    -0.67560
O791        O  0.82382171  0.34584001  0.77228745    -0.67110
O792        O  0.75785546  0.20548630  0.77982087    -0.58370
O793        O  0.80324765  0.26825674  0.72510426    -0.70880
O794        O  0.78130225  0.28179929  0.83024397    -0.69660
Cu795      Cu  0.71754755  0.26479670  0.76512415     1.04560
Cu796      Cu  0.79383906  0.27577897  0.77802508     1.04330
C797        C  0.74145497  0.27527231  0.84161556     0.96650
C798        C  0.77065439  0.25929689  0.70226261     0.95790
C799        C  0.71485876  0.17915003  0.76816289     0.87930
C800        C  0.79746300  0.36119398  0.76129120     0.94200
O801        O  0.75123027  0.94517775  0.82876926    -0.69550
O802        O  0.78971515  0.00194123  0.73045585    -0.70530
O803        O  0.82213630  0.03205264  0.80416089    -0.59150
O804        O  0.71894129  0.91459264  0.75282822    -0.67560
O805        O  0.66824234  0.44172624  0.75474831    -0.67110
O806        O  0.76672924  0.05109492  0.81591490    -0.58370
O807        O  0.74028821  0.02942727  0.73750740    -0.70880
O808        O  0.69454841  0.96398021  0.83222317    -0.69660
Cu809      Cu  0.77194481  0.97183089  0.77918153     1.04560
Cu810      Cu  0.71577150  0.99730621  0.78582865     1.04330
C811        C  0.71966797  0.94954557  0.84693789     0.96650
C812        C  0.76927651  0.02265761  0.71764918     0.95790
C813        C  0.80980481  0.06087530  0.81749642     0.87930
C814        C  0.68401303  0.41713907  0.73862643     0.94200
O815        O  0.55598055  0.28093703  0.92857126    -0.69550
O816        O  0.57044000  0.30130168  0.53092303    -0.70530
O817        O  0.54753808  0.21236237  0.97957920    -0.59150
O818        O  0.54547405  0.33756178  0.98811947    -0.67560
O819        O  0.96671548  0.29550748  0.98111309    -0.67110
O820        O  0.96921293  0.17269207  0.97001468    -0.58370
O821        O  0.99230870  0.26267260  0.53034387    -0.70880
O822        O  0.97873376  0.24197086  0.91967268    -0.69660
Cu823      Cu  0.55040841  0.27681487  0.98288436     1.04560
Cu824      Cu  0.96631111  0.23292556  0.97430072     1.04330
C825        C  0.51963030  0.26258042  0.90742103     0.96650
C826        C  0.53059787  0.28333742  0.54681371     0.95790
C827        C  0.50770994  0.17292245  0.97700965     0.87930
C828        C  0.50512331  0.33576952  0.98777652     0.94200
C829        C  0.81728138  0.40194471  0.73948724    -0.09880
C830        C  0.81667131  0.41467988  0.70926620    -0.11440
C831        C  0.69205591  0.40684739  0.67002939    -0.09880
C832        C  0.67630066  0.40688132  0.70003884    -0.11440
C833        C  0.53134564  0.28638937  0.58539274    -0.09880
C834        C  0.53750026  0.28742301  0.61747714    -0.11440
C835        C  0.53575694  0.26882660  0.83601764    -0.09880
C836        C  0.52710068  0.26564420  0.86839480    -0.11440
C837        C  0.65946443  0.27334933  0.69052008    -0.09880
C838        C  0.69028845  0.29006303  0.66791794    -0.11440
C839        C  0.84452704  0.10923503  0.82549421    -0.09880
C840        C  0.85304083  0.14433766  0.81085292    -0.11440
C841        C  0.72968169  0.12521619  0.73117122    -0.09880
C842        C  0.70452445  0.13623780  0.74816572    -0.11440
C843        C  0.93104964  0.28821884  0.72067287    -0.09880
C844        C  0.88924080  0.26046208  0.72101869    -0.11440
C845        C  0.77662291  0.03383336  0.64569433    -0.09880
C846        C  0.77499208  0.03322692  0.67903818    -0.11440
C847        C  0.71799549  0.94632887  0.88590264    -0.09880
C848        C  0.72323421  0.95542487  0.91851783    -0.11440
C849        C  0.77879009  0.25536856  0.66405546    -0.09880
C850        C  0.78403095  0.25863066  0.63162537    -0.11440
C851        C  0.73205130  0.26437666  0.91185588    -0.09880
C852        C  0.73308913  0.27054415  0.87982378    -0.11440
C853        C  0.58570695  0.09229198  0.01322808    -0.09880
C854        C  0.62012007  0.13166961  0.01779367    -0.11440
C855        C  0.87013667  0.38324251  0.01484998    -0.09880
C856        C  0.90920366  0.41712031  0.01056760    -0.11440
C857        C  0.50069483  0.09078773  0.99287890    -0.09880
C858        C  0.50499717  0.12812522  0.98396891    -0.11440
C859        C  0.49851034  0.41438323  0.00048705    -0.09880
C860        C  0.50201668  0.37894544  0.99459233    -0.11440
C861        C  0.65123058  0.03017009  0.52525906    -0.09880
C862        C  0.61285778  0.02515040  0.51725463    -0.11440
C863        C  0.93707772  0.02513520  0.51504702    -0.09880
C864        C  0.90272770  0.02982779  0.52155840    -0.11440
C865        C  0.99753758  0.95911516  0.00478392     0.05680
C866        C  0.95435055  0.96017214  0.00642269     0.05680
C867        C  0.95491948  0.00384545  0.00547965     0.05680
C868        C  0.49878740  0.54673624  0.00264455     0.05680
C869        C  0.54177293  0.54680899  0.00790668     0.05680
C870        C  0.54141950  0.50326773  0.00954121     0.05680
O871        O  0.74636010  0.79358301  0.47671973    -0.69550
O872        O  0.72923992  0.78168478  0.07848194    -0.70530
O873        O  0.81817129  0.85356804  0.52852852    -0.59150
O874        O  0.69385935  0.72996638  0.52987313    -0.67560
O875        O  0.73212588  0.69071026  0.51770395    -0.67110
O876        O  0.85640838  0.81434686  0.51650531    -0.58370
O877        O  0.76920271  0.74328233  0.07310678    -0.70880
O878        O  0.78472975  0.75435077  0.46459523    -0.69660
Cu879      Cu  0.75454674  0.79290747  0.53019834     1.04560
Cu880      Cu  0.79549998  0.75084591  0.51721858     1.04330
C881        C  0.76178262  0.77360069  0.45411625     0.96650
C882        C  0.75152807  0.76407030  0.09280380     0.95790
C883        C  0.85653722  0.85337234  0.52103032     0.87930
C884        C  0.69353426  0.69119267  0.52292626     0.94200
O885        O  0.79968466  0.57830147  0.48117373    -0.69550
O886        O  0.77370447  0.55860740  0.07366240    -0.70530
O887        O  0.82735451  0.53970476  0.01805046    -0.59150
O888        O  0.70363959  0.53824073  0.01887270    -0.67560
O889        O  0.66430757  0.96278260  0.03313291    -0.67110
O890        O  0.79062426  0.96433397  0.03214285    -0.58370
O891        O  0.73574862  0.98297228  0.08722752    -0.70880
O892        O  0.75857382  0.00003691  0.47388147    -0.69660
Cu893      Cu  0.76623986  0.54077906  0.01871333     1.04560
Cu894      Cu  0.72563351  0.96016927  0.03404109     1.04330
C895        C  0.77807192  0.54087141  0.46031742     0.96650
C896        C  0.75647796  0.52686546  0.09724761     0.95790
C897        C  0.82854807  0.50222281  0.02317757     0.87930
C898        C  0.66464370  0.50052130  0.02491021     0.94200
C899        C  0.85766861  0.67861660  0.16362482     0.06520
C900        C  0.80883622  0.66281466  0.15929432    -0.09630
C901        C  0.79089409  0.69074166  0.17409863     0.04020
C902        C  0.82473370  0.73734648  0.18580762    -0.08150
C903        C  0.86780765  0.74565066  0.19978843     0.06510
C904        C  0.88839485  0.72594988  0.17675975    -0.07570
H905        H  0.78409841  0.62757151  0.14964760     0.12110
H906        H  0.83032420  0.76243807  0.16575469     0.09640
H907        H  0.92543682  0.73769568  0.18178305     0.09480
O908        O  0.54253500  0.76784952  0.27880800    -0.69550
O909        O  0.51727592  0.75454758  0.17355583    -0.70610
O910        O  0.46170232  0.71438182  0.23311720    -0.59150
O911        O  0.59980114  0.80274226  0.21521831    -0.67560
O912        O  0.60985473  0.74040409  0.21324598    -0.67110
O913        O  0.96281382  0.64744748  0.22282927    -0.58370
O914        O  0.52992495  0.69403446  0.16569812    -0.70880
O915        O  0.54883177  0.70342498  0.27685065    -0.69660
Cu916      Cu  0.53031274  0.76208128  0.22597715     1.04560
Cu917      Cu  0.54101721  0.69543246  0.22059437     1.04330
C918        C  0.54689738  0.73720734  0.29505033     0.96650
C919        C  0.51867174  0.72279693  0.15307538     0.95790
C920        C  0.93706722  0.66610957  0.22147757     0.87930
C921        C  0.62513838  0.78373875  0.20791253     0.94200
C922        C  0.74644422  0.94835807  0.17834389     0.06520
C923        C  0.72976477  0.90978528  0.15328885    -0.09630
C924        C  0.74360731  0.87700454  0.15974068     0.04020
C925        C  0.78759927  0.89285743  0.17724472    -0.08150
C926        C  0.80875993  0.93611638  0.19805328     0.06510
C927        C  0.79206183  0.96693697  0.19365151    -0.07570
H928        H  0.69436521  0.89636848  0.14177765     0.12110
H929        H  0.79709317  0.86717043  0.18408505     0.09640
H930        H  0.80486730  0.99624166  0.21359086     0.09480
O931        O  0.71451751  0.76571079  0.32709973    -0.69550
O932        O  0.72101824  0.77316662  0.21940319    -0.70530
O933        O  0.69257289  0.70021822  0.26254671    -0.59150
O934        O  0.74768234  0.84170521  0.27807217    -0.67560
O935        O  0.82067105  0.85256604  0.28233018    -0.67110
O936        O  0.76638147  0.71505683  0.26914220    -0.58370
O937        O  0.79541875  0.78892556  0.22210129    -0.70880
O938        O  0.78859452  0.77911111  0.32966235    -0.69660
Cu939      Cu  0.71601489  0.76993301  0.27275359     1.04560
Cu940      Cu  0.79503808  0.78415835  0.27638570     1.04330
C941        C  0.75032117  0.77151876  0.34520859     0.96650
C942        C  0.75871920  0.78004122  0.20361258     0.95790
C943        C  0.72493790  0.68996467  0.25520841     0.87930
C944        C  0.79315272  0.86866364  0.27798454     0.94200
O945        O  0.80868864  0.56483190  0.33268881    -0.69550
O946        O  0.80165206  0.56395131  0.22403928    -0.70530
O947        O  0.84808130  0.63617692  0.27914338    -0.59150
O948        O  0.76185274  0.49545740  0.27547248    -0.67560
O949        O  0.69755725  0.00279287  0.27849465    -0.67110
O950        O  0.78364094  0.64284150  0.28275029    -0.58370
O951        O  0.73658965  0.56924614  0.22605443    -0.70880
O952        O  0.74395814  0.57094028  0.33751433    -0.69660
Cu953      Cu  0.80740139  0.56520988  0.27833706     1.04560
Cu954      Cu  0.73851725  0.57241040  0.28206319     1.04330
C955        C  0.77594044  0.56502041  0.35205716     0.96650
C956        C  0.76683960  0.56263187  0.20778046     0.95790
C957        C  0.82829253  0.66109391  0.27763553     0.87930
C958        C  0.71810003  0.98004363  0.26806966     0.94200
O959        O  0.57656938  0.78711719  0.42338331    -0.69550
O960        O  0.54168404  0.76943876  0.03568557    -0.70530
O961        O  0.57124320  0.73157345  0.48256660    -0.59150
O962        O  0.57161960  0.85709944  0.47576940    -0.67560
O963        O  0.99054060  0.81524788  0.47298710    -0.67110
O964        O  0.99068466  0.69185537  0.48122605    -0.58370
O965        O  0.96149069  0.72546532  0.02882622    -0.70880
O966        O  0.99211529  0.74322193  0.42054372    -0.69660
Cu967      Cu  0.57514789  0.79581007  0.47782005     1.04560
Cu968      Cu  0.98858599  0.75203913  0.47578308     1.04330
C969        C  0.53858367  0.76203261  0.40441311     0.96650
C970        C  0.50101256  0.74302752  0.04917929     0.95790
C971        C  0.53118688  0.69259057  0.48367409     0.87930
C972        C  0.53163069  0.85610934  0.47602903     0.94200
C973        C  0.81362621  0.91370745  0.26264605    -0.09880
C974        C  0.82186348  0.93417604  0.23490317    -0.11440
C975        C  0.71217840  0.94583443  0.20481772    -0.09880
C976        C  0.70082842  0.95032783  0.23552653    -0.11440
C977        C  0.49995585  0.72916588  0.08547329    -0.09880
C978        C  0.50717917  0.72117308  0.11550443    -0.11440
C979        C  0.54667109  0.74105050  0.33444840    -0.09880
C980        C  0.54259277  0.75001717  0.36641391    -0.11440
C981        C  0.66930417  0.80986545  0.18957301    -0.09880
C982        C  0.70437382  0.83442319  0.17246454    -0.11440
C983        C  0.85400503  0.70690717  0.26236367    -0.09880
C984        C  0.86583336  0.73310970  0.23742028    -0.11440
C985        C  0.74700678  0.66818344  0.19461635    -0.09880
C986        C  0.72350724  0.66431890  0.22161452    -0.11440
C987        C  0.89424921  0.64227293  0.20000102    -0.09880
C988        C  0.87071915  0.64659898  0.17728207    -0.11440
C989        C  0.75918593  0.54010516  0.13604962    -0.09880
C990        C  0.76095851  0.55035305  0.16870264    -0.11440
C991        C  0.77435331  0.55580777  0.39034022    -0.09880
C992        C  0.77502987  0.54645348  0.42177204    -0.11440
C993        C  0.75869117  0.77522595  0.16448204    -0.09880
C994        C  0.75673671  0.76888133  0.13172698    -0.11440
C995        C  0.75295623  0.77222918  0.41623245    -0.09880
C996        C  0.74858199  0.77073414  0.38381211    -0.11440
C997        C  0.61183188  0.61084544  0.51465012    -0.09880
C998        C  0.64897141  0.64757259  0.51947051    -0.11440
C999        C  0.90018868  0.89767226  0.51630850    -0.09880
C1000       C  0.93650836  0.93466042  0.51122614    -0.11440
C1001       C  0.52600572  0.61083425  0.49833514    -0.09880
C1002       C  0.52915091  0.64827171  0.49120638    -0.11440
C1003       C  0.52663613  0.93507546  0.49337143    -0.09880
C1004       C  0.52957663  0.89986697  0.48403121    -0.11440
C1005       C  0.62075303  0.50084835  0.02124875    -0.09880
C1006       C  0.58532258  0.50301359  0.01594866    -0.11440
C1007       C  0.91072043  0.50461506  0.01111753    -0.09880
C1008       C  0.87314215  0.50293385  0.01755303    -0.11440
C1009       C  0.02454085  0.97898149  0.50326260     0.05680
C1010       C  0.98073847  0.97913811  0.50674938     0.05680
C1011       C  0.98073745  0.02304870  0.50840165     0.05680
C1012       C  0.52459890  0.56616168  0.50508096     0.05680
C1013       C  0.56763747  0.56614096  0.50907094     0.05680
C1014       C  0.56803710  0.52307884  0.50889593     0.05680
O1015       O  0.71641793  0.77905061  0.97146086    -0.69550
O1016       O  0.76413272  0.78808495  0.58300336    -0.70530
O1017       O  0.78638229  0.84170729  0.02315032    -0.59150
O1018       O  0.66125286  0.71571034  0.02515250    -0.67560
O1019       O  0.70255594  0.67881441  0.01852981    -0.67110
O1020       O  0.82435875  0.80143545  0.01652452    -0.58370
O1021       O  0.80227671  0.74866220  0.57113703    -0.70880
O1022       O  0.75608635  0.74056472  0.96321402    -0.69660
Cu1023     Cu  0.72181826  0.78080171  0.02499150     1.04560
Cu1024     Cu  0.76433499  0.73952099  0.01772492     1.04330
C1025       C  0.73462157  0.76041934  0.95049587     0.96650
C1026       C  0.78411155  0.76598030  0.59373708     0.95790
C1027       C  0.82492048  0.84053867  0.01869153     0.87930
C1028       C  0.66290170  0.67742758  0.02111813     0.94200
O1029       O  0.75435887  0.51588278  0.96548286    -0.69550
O1030       O  0.79837396  0.57248351  0.59014494    -0.70530
O1031       O  0.86142963  0.57237508  0.53245893    -0.59150
O1032       O  0.73518446  0.57258473  0.53545194    -0.67560
O1033       O  0.69666916  0.99417310  0.53066728    -0.67110
O1034       O  0.81960833  0.99410596  0.52659012    -0.58370
O1035       O  0.75868010  0.99421960  0.58589026    -0.70880
O1036       O  0.71652253  0.94082449  0.98066174    -0.69660
Cu1037     Cu  0.80024343  0.57663269  0.53533964     1.04560
Cu1038     Cu  0.75721322  0.99288214  0.52932728     1.04330
C1039       C  0.73175505  0.47140649  0.95624449     0.96650
C1040       C  0.77784015  0.53303879  0.60530816     0.95790
C1041       C  0.85964424  0.53235437  0.52731505     0.87930
C1042       C  0.69621521  0.53256756  0.53119988     0.94200
C1043       C  0.85578024  0.71553220  0.73356006     0.06520
C1044       C  0.81220566  0.68383386  0.71574172    -0.09630
C1045       C  0.77985978  0.64213282  0.73240464     0.04020
C1046       C  0.79409383  0.63122125  0.76401782    -0.08150
C1047       C  0.83928412  0.66035529  0.77965359     0.06510
C1048       C  0.86974458  0.70297085  0.76489947    -0.07570
H1049       H  0.80155405  0.69372478  0.69166633     0.12110
H1050       H  0.76708158  0.60299438  0.77884309     0.09640
H1051       H  0.90416127  0.72638830  0.77792755     0.09480
O1052       O  0.56458403  0.81221289  0.78357943    -0.69550
O1053       O  0.56670668  0.82163465  0.67493020    -0.70610
O1054       O  0.50832535  0.82225348  0.72973777    -0.59150
O1055       O  0.62522918  0.81193610  0.72418351    -0.67560
O1056       O  0.58329597  0.73360750  0.71484991    -0.67110
O1057       O  0.97131507  0.74895216  0.72474677    -0.58370
O1058       O  0.52325739  0.74287326  0.66796700    -0.70880
O1059       O  0.52440121  0.73363901  0.77598916    -0.69660
Cu1060     Cu  0.56828517  0.81983187  0.72900428     1.04560
Cu1061     Cu  0.52337317  0.73562556  0.72107871     1.04330
C1062       C  0.54212348  0.77142947  0.79690940     0.96650
C1063       C  0.54300490  0.78358925  0.65492189     0.95790
C1064       C  0.97419257  0.78929070  0.72587865     0.87930
C1065       C  0.62220623  0.77286177  0.71306034     0.94200
C1066       C  0.72768913  0.90307356  0.64751457     0.06520
C1067       C  0.70987177  0.85672989  0.63314076    -0.09630
C1068       C  0.72698533  0.83031478  0.64870177     0.04020
C1069       C  0.77287025  0.85435959  0.66419577    -0.08150
C1070       C  0.79451410  0.90252664  0.67461137     0.06510
C1071       C  0.77445337  0.92793922  0.66204269    -0.07570
H1072       H  0.67315852  0.83769414  0.62326002     0.12110
H1073       H  0.78539615  0.83497268  0.67795903     0.09640
H1074       H  0.78892316  0.96355422  0.67292887     0.09480
O1075       O  0.70910564  0.76968684  0.81985302    -0.69550
O1076       O  0.73196253  0.75708233  0.71293137    -0.70530
O1077       O  0.68695703  0.69501076  0.76590578    -0.59150
O1078       O  0.75229121  0.83541233  0.76214201    -0.67560
O1079       O  0.82392669  0.84561963  0.77286332    -0.67110
O1080       O  0.75788533  0.70516786  0.77969014    -0.58370
O1081       O  0.80319951  0.76835900  0.72523370    -0.70880
O1082       O  0.78132261  0.78113429  0.83047163    -0.69660
Cu1083     Cu  0.71760539  0.76467227  0.76543325     1.04560
Cu1084     Cu  0.79385951  0.77548735  0.77821429     1.04330
C1085       C  0.74153850  0.77473883  0.84188322     0.96650
C1086       C  0.77056226  0.75945092  0.70244879     0.95790
C1087       C  0.71488182  0.67892874  0.76803356     0.87930
C1088       C  0.79767244  0.86114636  0.76197689     0.94200
O1089       O  0.75055287  0.44475893  0.82838594    -0.69550
O1090       O  0.78905315  0.50126962  0.72999123    -0.70530
O1091       O  0.82165294  0.53145388  0.80361968    -0.59150
O1092       O  0.71803061  0.41411425  0.75247595    -0.67560
O1093       O  0.66893731  0.94193640  0.75495829    -0.67110
O1094       O  0.76653935  0.55090792  0.81538045    -0.58370
O1095       O  0.73980525  0.52897405  0.73703309    -0.70880
O1096       O  0.69418524  0.46399132  0.83194458    -0.69660
Cu1097     Cu  0.77124137  0.47127145  0.77875121     1.04560
Cu1098     Cu  0.71534822  0.49710599  0.78545483     1.04330
C1099       C  0.71918384  0.44938758  0.84661761     0.96650
C1100       C  0.76873807  0.52210480  0.71718787     0.95790
C1101       C  0.80955827  0.56049428  0.81687487     0.87930
C1102       C  0.68496214  0.91756437  0.73884930     0.94200
O1103       O  0.55523501  0.78055251  0.92838279    -0.69550
O1104       O  0.57025391  0.80107651  0.53095347    -0.70530
O1105       O  0.54716541  0.71218921  0.97945270    -0.59150
O1106       O  0.54511480  0.83740669  0.98799119    -0.67560
O1107       O  0.96647035  0.79535101  0.98113713    -0.67110
O1108       O  0.96903208  0.67260552  0.97001823    -0.58370
O1109       O  0.99210552  0.76257688  0.53027084    -0.70880
O1110       O  0.97824674  0.74171268  0.91965967    -0.69660
Cu1111     Cu  0.55002594  0.77663938  0.98273563     1.04560
Cu1112     Cu  0.96609932  0.73280381  0.97432301     1.04330
C1113       C  0.51874405  0.76208335  0.90736925     0.96650
C1114       C  0.53029189  0.78290228  0.54667684     0.95790
C1115       C  0.50733509  0.67274131  0.97704190     0.87930
C1116       C  0.50476536  0.83562755  0.98780325     0.94200
C1117       C  0.81772646  0.90222615  0.74051267    -0.09880
C1118       C  0.81759512  0.91539633  0.71036763    -0.11440
C1119       C  0.69379799  0.90799544  0.67028132    -0.09880
C1120       C  0.67768079  0.90765415  0.70020471    -0.11440
C1121       C  0.53075694  0.78550927  0.58523676    -0.09880
C1122       C  0.53674915  0.78625229  0.61730462    -0.11440
C1123       C  0.53440612  0.76793148  0.83588877    -0.09880
C1124       C  0.52593841  0.76491653  0.86830158    -0.11440
C1125       C  0.66037485  0.77540278  0.69133292    -0.09880
C1126       C  0.69138674  0.79192998  0.66885818    -0.11440
C1127       C  0.84447180  0.60884463  0.82462582    -0.09880
C1128       C  0.85307224  0.64387896  0.80983812    -0.11440
C1129       C  0.72968623  0.62529605  0.73055513    -0.09880
C1130       C  0.70456460  0.63618474  0.74776239    -0.11440
C1131       C  0.93086833  0.78863417  0.72052523    -0.09880
C1132       C  0.88906577  0.76079847  0.72072960    -0.11440
C1133       C  0.77633011  0.53346089  0.64527590    -0.09880
C1134       C  0.77458136  0.53277255  0.67860721    -0.11440
C1135       C  0.71762169  0.44624988  0.88559000    -0.09880
C1136       C  0.72298399  0.45537881  0.91819838    -0.11440
C1137       C  0.77866995  0.75571480  0.66422668    -0.09880
C1138       C  0.78393193  0.75901389  0.63180841    -0.11440
C1139       C  0.73212689  0.76393048  0.91212174    -0.09880
C1140       C  0.73319260  0.77000687  0.88007952    -0.11440
C1141       C  0.58559406  0.59230921  0.01333259    -0.09880
C1142       C  0.62000912  0.63166332  0.01799702    -0.11440
C1143       C  0.86999951  0.88319384  0.01503961    -0.09880
C1144       C  0.90904052  0.91708369  0.01071335    -0.11440
C1145       C  0.50050671  0.59067114  0.99289332    -0.09880
C1146       C  0.50470405  0.62797385  0.98399685    -0.11440
C1147       C  0.49827790  0.91431718  0.00061837    -0.09880
C1148       C  0.50170535  0.87883451  0.99467042    -0.11440
C1149       C  0.65116193  0.52994902  0.52493408    -0.09880
C1150       C  0.61280681  0.52500718  0.51699495    -0.11440
C1151       C  0.93710282  0.52501958  0.51491189    -0.09880
C1152       C  0.90269123  0.52963777  0.52132823    -0.11440
loop_ 
_geom_bond_atom_site_label_1 
_geom_bond_atom_site_label_2 
_geom_bond_distance 
_geom_bond_site_symmetry_2 
_ccdc_geom_bond_type 
C1            C2   1.425       .  A
C1          C870   1.419       .  A
C1          C859   1.488       .  S
C2            C3   1.425       .  A
C2          C280   1.450       .  S
C3          C868   1.418       .  A
C3          C431   1.467       .  S
C4            C5   1.416   1_655  A
C4          C867   1.418       .  A
C4          C281   1.478   1_654  S
C5            C6   1.426       .  A
C5          C277   1.455       .  S
C6          C865   1.418   1_445  A
C6          C142   1.458       .  S
O7          Cu15   1.988       .  S
O7           C17   1.273       .  A
O8         Cu159   1.979       .  S
O8           C18   1.270       .  A
O9          Cu15   2.024       .  S
O9           C19   1.279       .  A
O10         Cu15   2.009       .  S
O10          C20   1.277       .  A
O11         Cu16   2.003       .  S
O11          C20   1.276       .  A
O12         Cu16   2.020       .  S
O12          C19   1.278       .  A
O13        Cu160   2.034       .  S
O13          C18   1.281       .  A
O14         Cu16   1.995       .  S
O14          C17   1.275       .  A
Cu15        O152   1.996       .  S
Cu15        Cu16   2.381       .  S
Cu16        O157   2.009       .  S
C17         C131   1.420       .  S
C18         C130   1.432       .  S
C19         C135   1.445       .  S
C20         C134   1.431       .  S
O21        Cu173   1.993       .  S
O21          C31   1.272       .  A
O22         Cu29   2.048       .  S
O22          C32   1.283       .  A
O23         Cu29   2.009       .  S
O23          C33   1.274       .  A
O24         Cu29   1.997       .  S
O24          C34   1.273   1_545  A
O25         Cu30   2.043       .  S
O25         C322   1.282       .  A
O26         Cu30   2.052       .  S
O26         C321   1.283       .  A
O27         Cu30   2.018       .  S
O27         C320   1.276       .  A
O28        Cu174   2.055       .  S
O28         C319   1.284       .  A
Cu29        O165   2.036   1_554  S
Cu29       Cu318   2.375   1_545  S
Cu30        O172   2.002   1_554  S
Cu30       Cu317   2.375       .  S
C31         C128   1.448       .  S
C31         O316   1.284   1_545  A
C32         C125   1.454       .  S
C32         O315   1.276   1_545  A
C33         C144   1.453       .  S
C33         O314   1.284   1_545  A
C34         C141   1.444   1_565  S
C34         O313   1.282       .  A
C35          C36   1.408       .  A
C35          C40   1.411       .  A
C35         C124   1.435       .  S
C36          C37   1.397       .  A
C36          H41   1.049       .  S
C37          C38   1.401       .  A
C37         C121   1.453       .  S
C38          C39   1.390       .  A
C38          H42   1.081       .  S
C39          C40   1.390       .  A
C39         C120   1.455       .  S
C40          H43   1.079       .  S
O44         Cu52   1.966       .  S
O44          C54   1.267       .  A
O45         Cu52   1.950       .  S
O45          C55   1.265       .  A
O46         Cu52   1.998   1_655  S
O46         C632   1.280       .  A
O47         Cu52   2.005       .  S
O47          C57   1.279       .  A
O48         Cu53   1.984       .  S
O48          C57   1.271       .  A
O49        Cu629   1.974       .  S
O49          C56   1.267       .  A
O50         Cu53   2.048       .  S
O50          C55   1.284       .  A
O51         Cu53   2.070       .  S
O51          C54   1.287       .  A
Cu52        Cu53   2.379       .  S
Cu53        O625   1.974   1_455  S
C54         C115   1.444       .  S
C55         C114   1.426       .  S
C56         C123   1.426       .  S
C56         O622   1.280       .  A
C57         C117   1.427       .  S
C58          C59   1.387       .  A
C58          C63   1.402       .  A
C58         C111   1.440       .  S
C59          C60   1.395       .  A
C59          H64   1.088       .  S
C60          C61   1.404       .  A
C60         C118   1.430       .  S
C61          C62   1.401       .  A
C61          H65   1.077       .  S
C62          C63   1.388       .  A
C62         C110   1.441       .  S
C63          H66   1.071       .  S
O67         Cu75   2.011       .  S
O67          C77   1.277       .  A
O68         Cu75   1.973       .  S
O68          C78   1.267       .  A
O69         Cu75   2.019       .  S
O69          C79   1.278       .  A
O70         Cu75   2.033       .  S
O70          C80   1.283       .  A
O71         Cu76   1.957       .  S
O71          C80   1.267       .  A
O72         Cu76   1.968       .  S
O72          C79   1.269       .  A
O73         Cu76   2.005       .  S
O73          C78   1.275       .  A
O74         Cu76   1.968       .  S
O74          C77   1.271       .  A
Cu75        Cu76   2.376       .  S
C77         C132   1.420       .  S
C78         C129   1.435       .  S
C79         C122   1.436       .  S
C80         C109   1.426       .  S
O81         Cu89   1.996       .  S
O81          C91   1.273       .  A
O82         Cu89   1.999       .  S
O82          C92   1.272       .  A
O83         Cu89   2.009       .  S
O83          C93   1.276       .  A
O84         Cu89   1.996   1_565  S
O84         C382   1.278       .  A
O85        Cu378   1.977       .  S
O85          C94   1.270       .  A
O86         Cu90   2.012       .  S
O86          C93   1.277       .  A
O87         Cu90   2.052       .  S
O87          C92   1.282       .  A
O88         Cu90   2.051       .  S
O88          C91   1.283       .  A
Cu89        Cu90   2.374       .  S
Cu90        O373   1.977   1_545  S
C91         C127   1.448       .  S
C92         C126   1.455       .  S
C93         C119   1.441       .  S
C94         C112   1.423       .  S
C94         O372   1.278       .  A
O95        Cu103   2.005       .  S
O95         C105   1.274       .  A
O96        Cu247   1.969   1_554  S
O96         C106   1.270   1_455  A
O97        Cu103   2.062       .  S
O97         C107   1.284       .  A
O98        Cu103   2.075       .  S
O98         C108   1.286       .  A
O99        Cu104   2.048       .  S
O99         C684   1.280       .  A
O100       Cu104   2.028       .  S
O100        C683   1.277       .  A
O101       Cu248   2.023   1_554  S
O101        C682   1.279       .  A
O102       Cu104   2.041       .  S
O102        C681   1.282       .  A
Cu103       O240   1.960       .  S
Cu103      Cu680   2.373   1_455  S
Cu104       O245   2.006       .  S
Cu104      Cu679   2.373       .  S
C105        C116   1.448       .  S
C105        O678   1.281   1_455  A
C106        C113   1.427       .  S
C106        O677   1.279       .  A
C107        C138   1.464       .  S
C107        O676   1.278   1_455  A
C108        C140   1.481       .  S
C108        O675   1.281   1_455  A
C109        C110   1.204       .  T
C111        C112   1.204       .  T
C113        C114   1.202   1_655  T
C115        C116   1.213       .  T
C117        C118   1.203       .  T
C119        C120   1.212       .  T
C121        C122   1.213       .  T
C123        C124   1.204       .  T
C125        C126   1.218       .  T
C127        C128   1.214       .  T
C129        C130   1.205       .  T
C131        C132   1.197       .  T
C133        C149   1.448       .  S
C133        C134   1.204       .  T
C135        C136   1.212       .  T
C136        C146   1.456       .  S
C137        C148   1.478       .  S
C137        C138   1.223       .  T
C139        C721   1.492       .  S
C139        C140   1.234       .  T
C141        C142   1.212       .  T
C143        C291   1.467       .  S
C143        C144   1.217       .  T
C145        C146   1.434       .  A
C145       C1014   1.420       .  A
C145        C715   1.492       .  S
C146        C147   1.438       .  A
C147       C1012   1.418       .  A
C147        C575   1.474       .  S
C148       C1011   1.417   1_455  A
C148        C149   1.413       .  A
C149        C150   1.419       .  A
C150       C1009   1.421   1_545  A
C150        C286   1.464       .  S
O151       Cu159   1.971   1_556  S
O151        C161   1.269       .  A
O152        C162   1.275       .  A
O153       Cu159   2.042       .  S
O153        C163   1.283       .  A
O154       Cu159   2.044       .  S
O154        C164   1.283       .  A
O155       Cu160   1.988       .  S
O155        C164   1.271       .  A
O156       Cu160   1.982       .  S
O156        C163   1.271       .  A
O157        C162   1.276       .  A
O158       Cu160   2.029   1_556  S
O158        C161   1.282       .  A
Cu159      Cu160   2.380       .  S
C161        C275   1.428       .  S
C162        C274   1.430       .  S
C163        C279   1.436       .  S
C164        C278   1.440       .  S
O165        C175   1.282   1_545  A
O166       Cu173   2.023       .  S
O166        C176   1.275       .  A
O167       Cu173   2.066       .  S
O167        C177   1.285       .  A
O168       Cu173   2.053       .  S
O168        C178   1.284       .  A
O169       Cu174   1.999       .  S
O169        C466   1.273       .  A
O170       Cu174   2.018       .  S
O170        C465   1.275       .  A
O171       Cu174   2.071       .  S
O171        C464   1.286       .  A
O172        C463   1.273       .  A
Cu173      Cu462   2.371   1_545  S
Cu174      Cu461   2.371       .  S
C175        C272   1.442       .  S
C175        O460   1.273       .  A
C176        C269   1.465       .  S
C176        O459   1.286   1_545  A
C177        C288   1.462       .  S
C177        O458   1.275   1_545  A
C178        C285   1.449       .  S
C178        O457   1.273   1_545  A
C179        C180   1.406       .  A
C179        C184   1.402       .  A
C179        C268   1.426       .  S
C180        C181   1.404       .  A
C180        H185   1.081       .  S
C181        C182   1.390       .  A
C181        C265   1.437       .  S
C182        C183   1.396       .  A
C182        H186   1.072       .  S
C183        C184   1.376       .  A
C183        C264   1.434       .  S
C184        H187   1.085       .  S
O188       Cu196   2.027       .  S
O188        C198   1.279       .  A
O189       Cu196   1.994       .  S
O189        C199   1.275       .  A
O190       Cu196   1.994       .  S
O190        C776   1.272   1_455  A
O191       Cu196   2.002       .  S
O191        C201   1.275       .  A
O192       Cu197   1.996       .  S
O192        C201   1.273       .  A
O193       Cu773   1.961       .  S
O193        C200   1.276       .  A
O194       Cu197   1.976       .  S
O194        C199   1.272       .  A
O195       Cu197   2.018       .  S
O195        C198   1.277       .  A
Cu196      Cu197   2.380       .  S
Cu197       O769   1.963   1_455  S
C198        C259   1.448       .  S
C199        C258   1.413       .  S
C200        C267   1.418       .  S
C200        O766   1.272       .  A
C201        C261   1.434       .  S
C202        C203   1.394       .  A
C202        C207   1.410       .  A
C202        C255   1.439       .  S
C203        C204   1.396       .  A
C203        H208   1.088       .  S
C204        C205   1.401       .  A
C204        C262   1.441       .  S
C205        C206   1.395       .  A
C205        H209   1.067       .  S
C206        C207   1.395       .  A
C206        C254   1.453       .  S
C207        H210   1.068       .  S
O211       Cu219   2.021       .  S
O211        C221   1.279       .  A
O212       Cu219   2.007       .  S
O212        C222   1.274       .  A
O213       Cu219   1.975       .  S
O213        C223   1.267       .  A
O214       Cu219   2.010       .  S
O214        C224   1.278       .  A
O215       Cu220   2.011       .  S
O215        C224   1.277       .  A
O216       Cu220   1.990       .  S
O216        C223   1.281       .  A
O217       Cu220   1.982       .  S
O217        C222   1.266       .  A
O218       Cu220   1.969       .  S
O218        C221   1.270       .  A
Cu219      Cu220   2.376       .  S
C221        C276   1.426       .  S
C222        C273   1.433       .  S
C223        C266   1.426       .  S
C224        C253   1.441       .  S
O225       Cu233   2.020       .  S
O225        C235   1.278       .  A
O226       Cu233   2.024   1_545  S
O226        C236   1.279       .  A
O227       Cu233   1.995   1_545  S
O227        C237   1.271       .  A
O228       Cu233   1.999       .  S
O228        C526   1.279       .  A
O229       Cu522   1.974       .  S
O229        C238   1.270       .  A
O230       Cu234   1.981   1_545  S
O230        C237   1.272       .  A
O231       Cu234   2.051   1_545  S
O231        C236   1.280       .  A
O232       Cu234   1.995       .  S
O232        C235   1.275       .  A
Cu233      Cu234   2.370       .  S
Cu234       O517   1.975       .  S
C235        C271   1.438       .  S
C236        C270   1.464       .  S
C237        C263   1.419       .  S
C238        C256   1.431       .  S
C238        O516   1.279       .  A
O239       Cu247   2.004       .  S
O239        C249   1.274       .  A
O240        C250   1.269       .  A
O241       Cu247   2.062       .  S
O241        C251   1.285       .  A
O242       Cu247   2.074       .  S
O242        C252   1.286       .  A
O243       Cu248   2.045       .  S
O243        C828   1.279       .  A
O244       Cu248   2.021       .  S
O244        C827   1.277       .  A
O245        C826   1.277       .  A
O246       Cu248   2.048       .  S
O246        C825   1.283       .  A
Cu247      Cu824   2.372   1_455  S
Cu248      Cu823   2.372       .  S
C249        C260   1.448       .  S
C249        O822   1.282   1_455  A
C250        C257   1.413       .  S
C250        O821   1.277   1_455  A
C251        C282   1.463       .  S
C251        O820   1.277   1_455  A
C252        C284   1.476       .  S
C252        O819   1.279   1_455  A
C253        C254   1.212       .  T
C255        C256   1.205       .  T
C257        C258   1.193       .  T
C259        C260   1.214       .  T
C261        C262   1.209       .  T
C263        C264   1.198       .  T
C265        C266   1.202       .  T
C267        C268   1.194       .  T
C269        C270   1.224       .  T
C271        C272   1.209       .  T
C273        C274   1.203       .  T
C275        C276   1.202       .  T
C277        C278   1.210       .  T
C279        C280   1.207       .  T
C281        C282   1.223       .  T
C283        C577   1.488   1_556  S
C283        C284   1.230   1_655  T
C285        C286   1.215       .  T
C287        C435   1.474       .  S
C287        C288   1.222       .  T
C289        C290   1.426       .  A
C289        C582   1.419   1_565  A
C289       C1147   1.488       .  S
C290        C291   1.425   1_565  A
C290        C568   1.450       .  S
C291        C580   1.418       .  A
C292        C579   1.418       .  A
C292        C293   1.416   1_655  A
C292        C569   1.478   1_654  S
C293        C294   1.427       .  A
C293        C565   1.455       .  S
C294        C577   1.419   1_455  A
C294        C430   1.458       .  S
O295       Cu303   1.989       .  S
O295        C305   1.273       .  A
O296       Cu447   1.978       .  S
O296        C306   1.270       .  A
O297       Cu303   2.024       .  S
O297        C307   1.278       .  A
O298       Cu303   2.008       .  S
O298        C308   1.276       .  A
O299       Cu304   2.003       .  S
O299        C308   1.276       .  A
O300       Cu304   2.021       .  S
O300        C307   1.278       .  A
O301       Cu448   2.036       .  S
O301        C306   1.281       .  A
O302       Cu304   1.996       .  S
O302        C305   1.275       .  A
Cu303       O440   1.998       .  S
Cu303      Cu304   2.381       .  S
Cu304       O445   2.011       .  S
C305        C419   1.421       .  S
C306        C418   1.433       .  S
C307        C423   1.446       .  S
C308        C422   1.431       .  S
O309       Cu461   1.994       .  S
O309        C319   1.272       .  A
O310       Cu317   2.049       .  S
O310        C320   1.283       .  A
O311       Cu317   2.009       .  S
O311        C321   1.274       .  A
O312       Cu317   1.998       .  S
O312        C322   1.273       .  A
O313       Cu318   2.043       .  S
O314       Cu318   2.052       .  S
O315       Cu318   2.017       .  S
O316       Cu462   2.054       .  S
Cu317       O453   2.037   1_554  S
Cu318       O460   2.001   1_554  S
C319        C416   1.448       .  S
C320        C413   1.454       .  S
C321        C432   1.453       .  S
C322        C429   1.444       .  S
C323        C324   1.407       .  A
C323        C328   1.411       .  A
C323        C412   1.435       .  S
C324        C325   1.396       .  A
C324        H329   1.055       .  S
C325        C326   1.401       .  A
C325        C409   1.453       .  S
C326        C327   1.390       .  A
C326        H330   1.081       .  S
C327        C328   1.390       .  A
C327        C408   1.455       .  S
C328        H331   1.079       .  S
O332       Cu340   1.966       .  S
O332        C342   1.267       .  A
O333       Cu340   1.950       .  S
O333        C343   1.265       .  A
O334       Cu340   1.998   1_655  S
O334        C920   1.280       .  A
O335       Cu340   2.005       .  S
O335        C345   1.279       .  A
O336       Cu341   1.984       .  S
O336        C345   1.271       .  A
O337       Cu917   1.974       .  S
O337        C344   1.267       .  A
O338       Cu341   2.048       .  S
O338        C343   1.284       .  A
O339       Cu341   2.070       .  S
O339        C342   1.287       .  A
Cu340      Cu341   2.379       .  S
Cu341       O913   1.974   1_455  S
C342        C403   1.444       .  S
C343        C402   1.426       .  S
C344        C411   1.426       .  S
C344        O910   1.280       .  A
C345        C405   1.427       .  S
C346        C347   1.387       .  A
C346        C351   1.403       .  A
C346        C399   1.440       .  S
C347        C348   1.395       .  A
C347        H352   1.088       .  S
C348        C349   1.404       .  A
C348        C406   1.430       .  S
C349        C350   1.401       .  A
C349        H353   1.077       .  S
C350        C351   1.388       .  A
C350        C398   1.441       .  S
C351        H354   1.071       .  S
O355       Cu363   2.013       .  S
O355        C365   1.277       .  A
O356       Cu363   1.974       .  S
O356        C366   1.267       .  A
O357       Cu363   2.019       .  S
O357        C367   1.278       .  A
O358       Cu363   2.033       .  S
O358        C368   1.283       .  A
O359       Cu364   1.957       .  S
O359        C368   1.267       .  A
O360       Cu364   1.968       .  S
O360        C367   1.269       .  A
O361       Cu364   2.006       .  S
O361        C366   1.275       .  A
O362       Cu364   1.969       .  S
O362        C365   1.271       .  A
Cu363      Cu364   2.376       .  S
C365        C420   1.421       .  S
C366        C417   1.436       .  S
C367        C410   1.437       .  S
C368        C397   1.426       .  S
O369       Cu377   1.997       .  S
O369        C379   1.273       .  A
O370       Cu377   2.000       .  S
O370        C380   1.272       .  A
O371       Cu377   2.009       .  S
O371        C381   1.276       .  A
O372       Cu377   1.997       .  S
O373        C382   1.270       .  A
O374       Cu378   2.012       .  S
O374        C381   1.276       .  A
O375       Cu378   2.052       .  S
O375        C380   1.282       .  A
O376       Cu378   2.050       .  S
O376        C379   1.283       .  A
Cu377      Cu378   2.373       .  S
C379        C415   1.449       .  S
C380        C414   1.455       .  S
C381        C407   1.441       .  S
C382        C400   1.422       .  S
O383       Cu391   2.005       .  S
O383        C393   1.274       .  A
O384       Cu535   1.969   1_554  S
O384        C394   1.270   1_455  A
O385       Cu391   2.062       .  S
O385        C395   1.284       .  A
O386       Cu391   2.075       .  S
O386        C396   1.286       .  A
O387       Cu392   2.049       .  S
O387        C972   1.280       .  A
O388       Cu392   2.028       .  S
O388        C971   1.277       .  A
O389       Cu536   2.023   1_554  S
O389        C970   1.279       .  A
O390       Cu392   2.040       .  S
O390        C969   1.282       .  A
Cu391       O528   1.960       .  S
Cu391      Cu968   2.373   1_455  S
Cu392       O533   2.005       .  S
Cu392      Cu967   2.373       .  S
C393        C404   1.448       .  S
C393        O966   1.281   1_455  A
C394        C401   1.427       .  S
C394        O965   1.279       .  A
C395        C426   1.464       .  S
C395        O964   1.278   1_455  A
C396        C428   1.481       .  S
C396        O963   1.281   1_455  A
C397        C398   1.204       .  T
C399        C400   1.204       .  T
C401        C402   1.202   1_655  T
C403        C404   1.213       .  T
C405        C406   1.203       .  T
C407        C408   1.212       .  T
C409        C410   1.213       .  T
C411        C412   1.204       .  T
C413        C414   1.219       .  T
C415        C416   1.214       .  T
C417        C418   1.205       .  T
C419        C420   1.198       .  T
C421        C437   1.448       .  S
C421        C422   1.204       .  T
C423        C424   1.213       .  T
C424        C434   1.456       .  S
C425        C436   1.479       .  S
C425        C426   1.223       .  T
C427       C1009   1.492       .  S
C427        C428   1.234       .  T
C429        C430   1.212       .  T
C431        C432   1.217       .  T
C433        C434   1.434       .  A
C433        C726   1.420   1_565  A
C433       C1003   1.492       .  S
C434        C435   1.438   1_565  A
C435        C724   1.419       .  A
C436        C723   1.417   1_455  A
C436        C437   1.413       .  A
C437        C438   1.419       .  A
C438        C721   1.420       .  A
C438        C574   1.464       .  S
O439       Cu447   1.970   1_556  S
O439        C449   1.269       .  A
O440        C450   1.276       .  A
O441       Cu447   2.043       .  S
O441        C451   1.283       .  A
O442       Cu447   2.046       .  S
O442        C452   1.283       .  A
O443       Cu448   1.987       .  S
O443        C452   1.271       .  A
O444       Cu448   1.980       .  S
O444        C451   1.270       .  A
O445        C450   1.276       .  A
O446       Cu448   2.032   1_556  S
O446        C449   1.282       .  A
Cu447      Cu448   2.380       .  S
C449        C563   1.429       .  S
C450        C562   1.432       .  S
C451        C567   1.436       .  S
C452        C566   1.441       .  S
O453        C463   1.282       .  A
O454       Cu461   2.024       .  S
O454        C464   1.275       .  A
O455       Cu461   2.066       .  S
O455        C465   1.285       .  A
O456       Cu461   2.053       .  S
O456        C466   1.284       .  A
O457       Cu462   1.999       .  S
O458       Cu462   2.018       .  S
O459       Cu462   2.070       .  S
C463        C560   1.443       .  S
C464        C557   1.466       .  S
C465        C576   1.462       .  S
C466        C573   1.449       .  S
C467        C468   1.406       .  A
C467        C472   1.401       .  A
C467        C556   1.425       .  S
C468        C469   1.405       .  A
C468        H473   1.081       .  S
C469        C470   1.392       .  A
C469        C553   1.436       .  S
C470        C471   1.396       .  A
C470        H474   1.076       .  S
C471        C472   1.376       .  A
C471        C552   1.434       .  S
C472        H475   1.085       .  S
O476       Cu484   2.026       .  S
O476        C486   1.279       .  A
O477       Cu484   1.993       .  S
O477        C487   1.275       .  A
O478       Cu484   1.994       .  S
O478       C1064   1.272   1_455  A
O479       Cu484   2.002       .  S
O479        C489   1.275       .  A
O480       Cu485   1.996       .  S
O480        C489   1.273       .  A
O481      Cu1061   1.961       .  S
O481        C488   1.275       .  A
O482       Cu485   1.975       .  S
O482        C487   1.272       .  A
O483       Cu485   2.018       .  S
O483        C486   1.277       .  A
Cu484      Cu485   2.380       .  S
Cu485      O1057   1.962   1_455  S
C486        C547   1.448       .  S
C487        C546   1.413       .  S
C488        C555   1.418       .  S
C488       O1054   1.272       .  A
C489        C549   1.434       .  S
C490        C491   1.394       .  A
C490        C495   1.410       .  A
C490        C543   1.439       .  S
C491        C492   1.396       .  A
C491        H496   1.088       .  S
C492        C493   1.401       .  A
C492        C550   1.441       .  S
C493        C494   1.396       .  A
C493        H497   1.067       .  S
C494        C495   1.395       .  A
C494        C542   1.453       .  S
C495        H498   1.068       .  S
O499       Cu507   2.022       .  S
O499        C509   1.280       .  A
O500       Cu507   2.010       .  S
O500        C510   1.274       .  A
O501       Cu507   1.973       .  S
O501        C511   1.266       .  A
O502       Cu507   2.007       .  S
O502        C512   1.277       .  A
O503       Cu508   2.012       .  S
O503        C512   1.277       .  A
O504       Cu508   1.989       .  S
O504        C511   1.281       .  A
O505       Cu508   1.983       .  S
O505        C510   1.266       .  A
O506       Cu508   1.969       .  S
O506        C509   1.270       .  A
Cu507      Cu508   2.376       .  S
C509        C564   1.427       .  S
C510        C561   1.435       .  S
C511        C554   1.426       .  S
C512        C541   1.440       .  S
O513       Cu521   2.021       .  S
O513        C523   1.279       .  A
O514       Cu521   2.024       .  S
O514        C524   1.279       .  A
O515       Cu521   1.998       .  S
O515        C525   1.271       .  A
O516       Cu521   2.000       .  S
O517        C526   1.270       .  A
O518       Cu522   1.975       .  S
O518        C525   1.271       .  A
O519       Cu522   2.050       .  S
O519        C524   1.281       .  A
O520       Cu522   1.996       .  S
O520        C523   1.275       .  A
Cu521      Cu522   2.369       .  S
C523        C559   1.439       .  S
C524        C558   1.464       .  S
C525        C551   1.420       .  S
C526        C544   1.431       .  S
O527       Cu535   2.003       .  S
O527        C537   1.273       .  A
O528        C538   1.269       .  A
O529       Cu535   2.062       .  S
O529        C539   1.285       .  A
O530       Cu535   2.074       .  S
O530        C540   1.286       .  A
O531       Cu536   2.045       .  S
O531       C1116   1.279       .  A
O532       Cu536   2.021       .  S
O532       C1115   1.277       .  A
O533       C1114   1.277       .  A
O534       Cu536   2.048       .  S
O534       C1113   1.283       .  A
Cu535     Cu1112   2.372   1_455  S
Cu536     Cu1111   2.372       .  S
C537        C548   1.448       .  S
C537       O1110   1.282   1_455  A
C538        C545   1.412       .  S
C538       O1109   1.277   1_455  A
C539        C570   1.463       .  S
C539       O1108   1.276   1_455  A
C540        C572   1.475       .  S
C540       O1107   1.279   1_455  A
C541        C542   1.212       .  T
C543        C544   1.206       .  T
C545        C546   1.193       .  T
C547        C548   1.214       .  T
C549        C550   1.209       .  T
C551        C552   1.198       .  T
C553        C554   1.201       .  T
C555        C556   1.194       .  T
C557        C558   1.224       .  T
C559        C560   1.210       .  T
C561        C562   1.204       .  T
C563        C564   1.202       .  T
C565        C566   1.210       .  T
C567        C568   1.207       .  T
C569        C570   1.223       .  T
C571        C865   1.487   1_556  S
C571        C572   1.230   1_655  T
C573        C574   1.215       .  T
C575        C576   1.222       .  T
C577        C578   1.425       .  A
C578        C579   1.425       .  A
C578        C856   1.450       .  S
C579       C1007   1.466       .  S
C580        C581   1.416       .  A
C580        C857   1.478   1_554  S
C581        C582   1.427       .  A
C581        C853   1.455       .  S
C582        C718   1.458       .  S
O583       Cu591   1.989       .  S
O583        C593   1.273       .  A
O584       Cu735   1.978       .  S
O584        C594   1.270       .  A
O585       Cu591   2.020       .  S
O585        C595   1.278       .  A
O586       Cu591   2.006       .  S
O586        C596   1.276       .  A
O587       Cu592   2.006       .  S
O587        C596   1.276       .  A
O588       Cu592   2.022       .  S
O588        C595   1.278       .  A
O589       Cu736   2.033       .  S
O589        C594   1.281       .  A
O590       Cu592   1.990       .  S
O590        C593   1.275       .  A
Cu591       O728   1.997       .  S
Cu591      Cu592   2.381       .  S
Cu592       O733   2.005       .  S
C593        C707   1.419       .  S
C594        C706   1.431       .  S
C595        C711   1.445       .  S
C596        C710   1.431       .  S
O597       Cu749   1.992       .  S
O597        C607   1.271       .  A
O598       Cu605   2.049       .  S
O598        C608   1.283       .  A
O599       Cu605   2.009       .  S
O599        C609   1.274       .  A
O600       Cu605   1.999       .  S
O600        C610   1.273       .  A
O601       Cu606   2.044       .  S
O601        C898   1.282       .  A
O602       Cu606   2.051       .  S
O602        C897   1.283       .  A
O603       Cu606   2.018       .  S
O603        C896   1.276       .  A
O604       Cu750   2.058       .  S
O604        C895   1.285       .  A
Cu605       O741   2.036   1_554  S
Cu605      Cu894   2.375   1_545  S
Cu606       O748   2.001   1_554  S
Cu606      Cu893   2.375       .  S
C607        C704   1.449       .  S
C607        O892   1.285       .  A
C608        C701   1.454       .  S
C608        O891   1.276   1_545  A
C609        C720   1.452       .  S
C609        O890   1.283   1_545  A
C610        C717   1.444       .  S
C610        O889   1.282   1_545  A
C611        C612   1.410       .  A
C611        C616   1.412       .  A
C611        C700   1.435       .  S
C612        C613   1.395       .  A
C612        H617   1.061       .  S
C613        C614   1.401       .  A
C613        C697   1.453       .  S
C614        C615   1.389       .  A
C614        H618   1.081       .  S
C615        C616   1.390       .  A
C615        C696   1.455       .  S
C616        H619   1.080       .  S
O620       Cu628   1.965       .  S
O620        C630   1.267       .  A
O621       Cu628   1.951       .  S
O621        C631   1.266       .  A
O622       Cu628   1.998       .  S
O623       Cu628   2.007       .  S
O623        C633   1.279       .  A
O624       Cu629   1.987       .  S
O624        C633   1.272       .  A
O625        C632   1.267       .  A
O626       Cu629   2.047       .  S
O626        C631   1.284       .  A
O627       Cu629   2.069       .  S
O627        C630   1.287       .  A
Cu628      Cu629   2.378       .  S
C630        C691   1.444       .  S
C631        C690   1.426       .  S
C632        C699   1.428       .  S
C633        C693   1.428       .  S
C634        C635   1.386       .  A
C634        C639   1.402       .  A
C634        C687   1.439       .  S
C635        C636   1.393       .  A
C635        H640   1.088       .  S
C636        C637   1.405       .  A
C636        C694   1.431       .  S
C637        C638   1.402       .  A
C637        H641   1.077       .  S
C638        C639   1.387       .  A
C638        C686   1.440       .  S
C639        H642   1.073       .  S
O643       Cu651   2.005       .  S
O643        C653   1.276       .  A
O644       Cu651   1.967       .  S
O644        C654   1.266       .  A
O645       Cu651   2.020       .  S
O645        C655   1.279       .  A
O646       Cu651   2.032       .  S
O646        C656   1.283       .  A
O647       Cu652   1.956       .  S
O647        C656   1.266       .  A
O648       Cu652   1.966       .  S
O648        C655   1.269       .  A
O649       Cu652   2.007       .  S
O649        C654   1.276       .  A
O650       Cu652   1.971       .  S
O650        C653   1.272       .  A
Cu651      Cu652   2.377       .  S
C653        C708   1.418       .  S
C654        C705   1.435       .  S
C655        C698   1.437       .  S
C656        C685   1.425       .  S
O657       Cu665   1.996       .  S
O657        C667   1.273       .  A
O658       Cu665   2.001       .  S
O658        C668   1.272       .  A
O659       Cu665   2.008       .  S
O659        C669   1.276       .  A
O660       Cu665   1.994   1_565  S
O660        C958   1.277       .  A
O661       Cu954   1.978       .  S
O661        C670   1.270       .  A
O662       Cu666   2.011       .  S
O662        C669   1.277       .  A
O663       Cu666   2.052       .  S
O663        C668   1.281       .  A
O664       Cu666   2.051       .  S
O664        C667   1.283       .  A
Cu665      Cu666   2.373       .  S
Cu666       O949   1.978       .  S
C667        C703   1.449       .  S
C668        C702   1.455       .  S
C669        C695   1.442       .  S
C670        C688   1.421       .  S
C670        O948   1.277       .  A
O671       Cu679   2.003       .  S
O671        C681   1.274       .  A
O672       Cu823   1.968   1_554  S
O672        C682   1.270       .  A
O673       Cu679   2.063       .  S
O673        C683   1.285       .  A
O674       Cu679   2.076       .  S
O674        C684   1.287       .  A
O675       Cu680   2.049       .  S
O676       Cu680   2.030       .  S
O677       Cu824   2.022   1_554  S
O678       Cu680   2.039       .  S
Cu679       O816   1.957       .  S
Cu680       O821   2.004       .  S
C681        C692   1.447       .  S
C682        C689   1.427       .  S
C683        C714   1.464       .  S
C684        C716   1.481       .  S
C685        C686   1.204       .  T
C687        C688   1.203       .  T
C689        C690   1.202       .  T
C691        C692   1.213       .  T
C693        C694   1.204       .  T
C695        C696   1.213       .  T
C697        C698   1.213       .  T
C699        C700   1.205       .  T
C701        C702   1.219       .  T
C703        C704   1.215       .  T
C705        C706   1.205       .  T
C707        C708   1.196       .  T
C709        C725   1.448       .  S
C709        C710   1.204       .  T
C711        C712   1.212       .  T
C712        C722   1.455       .  S
C713        C724   1.478       .  S
C713        C714   1.223       .  T
C715        C716   1.234       .  T
C717        C718   1.212       .  T
C719        C867   1.466       .  S
C719        C720   1.217       .  T
C721        C722   1.433   1_455  A
C722        C723   1.437       .  A
C723       C1151   1.473       .  S
C724        C725   1.413       .  A
C725        C726   1.418       .  A
C726        C862   1.463       .  S
O727       Cu735   1.970   1_556  S
O727        C737   1.269       .  A
O728        C738   1.276       .  A
O729       Cu735   2.041       .  S
O729        C739   1.283       .  A
O730       Cu735   2.044       .  S
O730        C740   1.283       .  A
O731       Cu736   1.988       .  S
O731        C740   1.271       .  A
O732       Cu736   1.981       .  S
O732        C739   1.270       .  A
O733        C738   1.275       .  A
O734       Cu736   2.029   1_556  S
O734        C737   1.281       .  A
Cu735      Cu736   2.380       .  S
C737        C851   1.427       .  S
C738        C850   1.429       .  S
C739        C855   1.436       .  S
C740        C854   1.441       .  S
O741        C751   1.282   1_545  A
O742       Cu749   2.021       .  S
O742        C752   1.275       .  A
O743       Cu749   2.068       .  S
O743        C753   1.286       .  A
O744       Cu749   2.056       .  S
O744        C754   1.285       .  A
O745       Cu750   1.994       .  S
O745       C1042   1.272       .  A
O746       Cu750   2.014       .  S
O746       C1041   1.274       .  A
O747       Cu750   2.073       .  S
O747       C1040   1.287       .  A
O748       C1039   1.273       .  A
Cu749     Cu1038   2.371   1_545  S
Cu750     Cu1037   2.371       .  S
C751        C848   1.442       .  S
C751       O1036   1.273       .  A
C752        C845   1.466       .  S
C752       O1035   1.287   1_545  A
C753        C864   1.461       .  S
C753       O1034   1.274   1_545  A
C754        C861   1.448       .  S
C754       O1033   1.272   1_545  A
C755        C756   1.406       .  A
C755        C760   1.402       .  A
C755        C844   1.425       .  S
C756        C757   1.403       .  A
C756        H761   1.080       .  S
C757        C758   1.388       .  A
C757        C841   1.437       .  S
C758        C759   1.395       .  A
C758        H762   1.070       .  S
C759        C760   1.376       .  A
C759        C840   1.434       .  S
C760        H763   1.085       .  S
O764       Cu772   2.027       .  S
O764        C774   1.279       .  A
O765       Cu772   1.994       .  S
O765        C775   1.275       .  A
O766       Cu772   1.993       .  S
O767       Cu772   2.002       .  S
O767        C777   1.276       .  A
O768       Cu773   1.996       .  S
O768        C777   1.273       .  A
O769        C776   1.276       .  A
O770       Cu773   1.976       .  S
O770        C775   1.272       .  A
O771       Cu773   2.019       .  S
O771        C774   1.278       .  A
Cu772      Cu773   2.380       .  S
C774        C835   1.448       .  S
C775        C834   1.414       .  S
C776        C843   1.418       .  S
C777        C837   1.433       .  S
C778        C779   1.394       .  A
C778        C783   1.409       .  A
C778        C831   1.439       .  S
C779        C780   1.396       .  A
C779        H784   1.088       .  S
C780        C781   1.401       .  A
C780        C838   1.441       .  S
C781        C782   1.394       .  A
C781        H785   1.065       .  S
C782        C783   1.394       .  A
C782        C830   1.453       .  S
C783        H786   1.066       .  S
O787       Cu795   2.019       .  S
O787        C797   1.279       .  A
O788       Cu795   2.005       .  S
O788        C798   1.274       .  A
O789       Cu795   1.975       .  S
O789        C799   1.267       .  A
O790       Cu795   2.009       .  S
O790        C800   1.277       .  A
O791       Cu796   2.012       .  S
O791        C800   1.277       .  A
O792       Cu796   1.991       .  S
O792        C799   1.281       .  A
O793       Cu796   1.980       .  S
O793        C798   1.266       .  A
O794       Cu796   1.970       .  S
O794        C797   1.270       .  A
Cu795      Cu796   2.376       .  S
C797        C852   1.426       .  S
C798        C849   1.432       .  S
C799        C842   1.426       .  S
C800        C829   1.441       .  S
O801       Cu809   2.019       .  S
O801        C811   1.278       .  A
O802       Cu809   2.025   1_545  S
O802        C812   1.279       .  A
O803       Cu809   1.993   1_545  S
O803        C813   1.271       .  A
O804       Cu809   1.998       .  S
O804       C1102   1.279       .  A
O805      Cu1098   1.977       .  S
O805        C814   1.271       .  A
O806       Cu810   1.987   1_545  S
O806        C813   1.273       .  A
O807       Cu810   2.052   1_545  S
O807        C812   1.280       .  A
O808       Cu810   1.996       .  S
O808        C811   1.275       .  A
Cu809      Cu810   2.370       .  S
Cu810      O1093   1.978       .  S
C811        C847   1.438       .  S
C812        C846   1.465       .  S
C813        C839   1.420       .  S
C814        C832   1.432       .  S
C814       O1092   1.279       .  A
O815       Cu823   2.004       .  S
O815        C825   1.273       .  A
O816        C826   1.268       .  A
O817       Cu823   2.063       .  S
O817        C827   1.285       .  A
O818       Cu823   2.075       .  S
O818        C828   1.286       .  A
O819       Cu824   2.045       .  S
O820       Cu824   2.021       .  S
O822       Cu824   2.046       .  S
C825        C836   1.449       .  S
C826        C833   1.413       .  S
C827        C858   1.464       .  S
C828        C860   1.476       .  S
C829        C830   1.212       .  T
C831        C832   1.206       .  T
C833        C834   1.193       .  T
C835        C836   1.214       .  T
C837        C838   1.209       .  T
C839        C840   1.198       .  T
C841        C842   1.202       .  T
C843        C844   1.194       .  T
C845        C846   1.224       .  T
C847        C848   1.209       .  T
C849        C850   1.202       .  T
C851        C852   1.201       .  T
C853        C854   1.210       .  T
C855        C856   1.207       .  T
C857        C858   1.224       .  T
C859        C860   1.230   1_554  T
C861        C862   1.215       .  T
C863       C1011   1.473       .  S
C863        C864   1.222       .  T
C865        C866   1.425       .  A
C866        C867   1.425   1_565  A
C866       C1144   1.450       .  S
C868        C869   1.416       .  A
C868       C1145   1.479   1_554  S
C869        C870   1.427       .  A
C869       C1141   1.455       .  S
C870       C1006   1.458       .  S
O871       Cu879   1.988       .  S
O871        C881   1.273       .  A
O872      Cu1023   1.978       .  S
O872        C882   1.270       .  A
O873       Cu879   2.020       .  S
O873        C883   1.278       .  A
O874       Cu879   2.006       .  S
O874        C884   1.276       .  A
O875       Cu880   2.006       .  S
O875        C884   1.276       .  A
O876       Cu880   2.021       .  S
O876        C883   1.278       .  A
O877      Cu1024   2.032       .  S
O877        C882   1.281       .  A
O878       Cu880   1.989       .  S
O878        C881   1.274       .  A
Cu879      O1016   1.996       .  S
Cu879      Cu880   2.382       .  S
Cu880      O1021   2.004       .  S
C881        C995   1.418       .  S
C882        C994   1.431       .  S
C883        C999   1.445       .  S
C884        C998   1.431       .  S
O885      Cu1037   1.992       .  S
O885        C895   1.272       .  A
O886       Cu893   2.048       .  S
O886        C896   1.283       .  A
O887       Cu893   2.009       .  S
O887        C897   1.274       .  A
O888       Cu893   1.998       .  S
O888        C898   1.273       .  A
O889       Cu894   2.044       .  S
O890       Cu894   2.052       .  S
O891       Cu894   2.018       .  S
O892      Cu1038   2.059   1_545  S
Cu893      O1029   2.036   1_554  S
Cu894      O1036   2.001   1_554  S
C895        C992   1.449       .  S
C896        C989   1.454       .  S
C897       C1008   1.452       .  S
C898       C1005   1.444       .  S
C899        C900   1.410       .  A
C899        C904   1.412       .  A
C899        C988   1.435       .  S
C900        C901   1.395       .  A
C900        H905   1.061       .  S
C901        C902   1.401       .  A
C901        C985   1.453       .  S
C902        C903   1.389       .  A
C902        H906   1.081       .  S
C903        C904   1.390       .  A
C903        C984   1.455       .  S
C904        H907   1.080       .  S
O908       Cu916   1.965       .  S
O908        C918   1.267       .  A
O909       Cu916   1.951       .  S
O909        C919   1.266       .  A
O910       Cu916   1.998       .  S
O911       Cu916   2.006       .  S
O911        C921   1.279       .  A
O912       Cu917   1.986       .  S
O912        C921   1.272       .  A
O913        C920   1.268       .  A
O914       Cu917   2.047       .  S
O914        C919   1.284       .  A
O915       Cu917   2.069       .  S
O915        C918   1.287       .  A
Cu916      Cu917   2.378       .  S
C918        C979   1.443       .  S
C919        C978   1.426       .  S
C920        C987   1.428       .  S
C921        C981   1.428       .  S
C922        C923   1.386       .  A
C922        C927   1.402       .  A
C922        C975   1.439       .  S
C923        C924   1.393       .  A
C923        H928   1.088       .  S
C924        C925   1.405       .  A
C924        C982   1.431       .  S
C925        C926   1.402       .  A
C925        H929   1.077       .  S
C926        C927   1.387       .  A
C926        C974   1.440       .  S
C927        H930   1.073       .  S
O931       Cu939   2.005       .  S
O931        C941   1.276       .  A
O932       Cu939   1.966       .  S
O932        C942   1.266       .  A
O933       Cu939   2.021       .  S
O933        C943   1.279       .  A
O934       Cu939   2.032       .  S
O934        C944   1.283       .  A
O935       Cu940   1.955       .  S
O935        C944   1.266       .  A
O936       Cu940   1.966       .  S
O936        C943   1.268       .  A
O937       Cu940   2.006       .  S
O937        C942   1.276       .  A
O938       Cu940   1.970       .  S
O938        C941   1.272       .  A
Cu939      Cu940   2.377       .  S
C941        C996   1.418       .  S
C942        C993   1.435       .  S
C943        C986   1.437       .  S
C944        C973   1.425       .  S
O945       Cu953   1.996       .  S
O945        C955   1.273       .  A
O946       Cu953   2.000       .  S
O946        C956   1.272       .  A
O947       Cu953   2.009       .  S
O947        C957   1.276       .  A
O948       Cu953   1.994       .  S
O949        C958   1.270   1_545  A
O950       Cu954   2.011       .  S
O950        C957   1.276       .  A
O951       Cu954   2.052       .  S
O951        C956   1.281       .  A
O952       Cu954   2.051       .  S
O952        C955   1.283       .  A
Cu953      Cu954   2.373       .  S
C955        C991   1.449       .  S
C956        C990   1.455       .  S
C957        C983   1.442       .  S
C958        C976   1.421       .  S
O959       Cu967   2.003       .  S
O959        C969   1.274       .  A
O960      Cu1111   1.968   1_554  S
O960        C970   1.270       .  A
O961       Cu967   2.063       .  S
O961        C971   1.285       .  A
O962       Cu967   2.076       .  S
O962        C972   1.287       .  A
O963       Cu968   2.050       .  S
O964       Cu968   2.031       .  S
O965      Cu1112   2.022   1_554  S
O966       Cu968   2.039       .  S
Cu967      O1104   1.957       .  S
Cu968      O1109   2.003       .  S
C969        C980   1.447       .  S
C970        C977   1.427       .  S
C971       C1002   1.464       .  S
C972       C1004   1.481       .  S
C973        C974   1.203       .  T
C975        C976   1.203       .  T
C977        C978   1.202       .  T
C979        C980   1.213       .  T
C981        C982   1.203       .  T
C983        C984   1.212       .  T
C985        C986   1.213       .  T
C987        C988   1.205       .  T
C989        C990   1.219       .  T
C991        C992   1.215       .  T
C993        C994   1.204       .  T
C995        C996   1.196       .  T
C997       C1013   1.448       .  S
C997        C998   1.204       .  T
C999       C1000   1.212       .  T
C1000      C1010   1.455       .  S
C1001      C1012   1.478       .  S
C1001      C1002   1.223       .  T
C1003      C1004   1.234       .  T
C1005      C1006   1.212       .  T
C1007      C1008   1.216       .  T
C1009      C1010   1.433   1_455  A
C1010      C1011   1.437   1_565  A
C1012      C1013   1.413       .  A
C1013      C1014   1.418       .  A
C1014      C1150   1.463       .  S
O1015     Cu1023   1.970   1_556  S
O1015      C1025   1.269       .  A
O1016      C1026   1.276       .  A
O1017     Cu1023   2.041       .  S
O1017      C1027   1.283       .  A
O1018     Cu1023   2.043       .  S
O1018      C1028   1.283       .  A
O1019     Cu1024   1.988       .  S
O1019      C1028   1.271       .  A
O1020     Cu1024   1.981       .  S
O1020      C1027   1.271       .  A
O1021      C1026   1.275       .  A
O1022     Cu1024   2.028   1_556  S
O1022      C1025   1.281       .  A
Cu1023    Cu1024   2.380       .  S
C1025      C1139   1.427       .  S
C1026      C1138   1.428       .  S
C1027      C1143   1.436       .  S
C1028      C1142   1.440       .  S
O1029      C1039   1.282       .  A
O1030     Cu1037   2.021       .  S
O1030      C1040   1.275       .  A
O1031     Cu1037   2.068       .  S
O1031      C1041   1.286       .  A
O1032     Cu1037   2.055       .  S
O1032      C1042   1.284       .  A
O1033     Cu1038   1.994       .  S
O1034     Cu1038   2.013       .  S
O1035     Cu1038   2.074       .  S
C1039      C1136   1.442       .  S
C1040      C1133   1.466       .  S
C1041      C1152   1.461       .  S
C1042      C1149   1.448       .  S
C1043      C1044   1.407       .  A
C1043      C1048   1.402       .  A
C1043      C1132   1.426       .  S
C1044      C1045   1.403       .  A
C1044      H1049   1.080       .  S
C1045      C1046   1.388       .  A
C1045      C1129   1.437       .  S
C1046      C1047   1.396       .  A
C1046      H1050   1.069       .  S
C1047      C1048   1.376       .  A
C1047      C1128   1.434       .  S
C1048      H1051   1.085       .  S
O1052     Cu1060   2.027       .  S
O1052      C1062   1.279       .  A
O1053     Cu1060   1.991       .  S
O1053      C1063   1.274       .  A
O1054     Cu1060   1.995       .  S
O1055     Cu1060   2.002       .  S
O1055      C1065   1.276       .  A
O1056     Cu1061   1.995       .  S
O1056      C1065   1.272       .  A
O1057      C1064   1.276       .  A
O1058     Cu1061   1.978       .  S
O1058      C1063   1.273       .  A
O1059     Cu1061   2.021       .  S
O1059      C1062   1.278       .  A
Cu1060    Cu1061   2.381       .  S
C1062      C1123   1.449       .  S
C1063      C1122   1.413       .  S
C1064      C1131   1.418       .  S
C1065      C1125   1.433       .  S
C1066      C1067   1.394       .  A
C1066      C1071   1.410       .  A
C1066      C1119   1.440       .  S
C1067      C1068   1.396       .  A
C1067      H1072   1.088       .  S
C1068      C1069   1.400       .  A
C1068      C1126   1.441       .  S
C1069      C1070   1.394       .  A
C1069      H1073   1.066       .  S
C1070      C1071   1.395       .  A
C1070      C1118   1.453       .  S
C1071      H1074   1.066       .  S
O1075     Cu1083   2.019       .  S
O1075      C1085   1.279       .  A
O1076     Cu1083   2.004       .  S
O1076      C1086   1.273       .  A
O1077     Cu1083   1.976       .  S
O1077      C1087   1.267       .  A
O1078     Cu1083   2.010       .  S
O1078      C1088   1.278       .  A
O1079     Cu1084   2.012       .  S
O1079      C1088   1.277       .  A
O1080     Cu1084   1.991       .  S
O1080      C1087   1.281       .  A
O1081     Cu1084   1.980       .  S
O1081      C1086   1.266       .  A
O1082     Cu1084   1.970       .  S
O1082      C1085   1.270       .  A
Cu1083    Cu1084   2.376       .  S
C1085      C1140   1.425       .  S
C1086      C1137   1.431       .  S
C1087      C1130   1.426       .  S
C1088      C1117   1.441       .  S
O1089     Cu1097   2.019       .  S
O1089      C1099   1.278       .  A
O1090     Cu1097   2.025       .  S
O1090      C1100   1.279       .  A
O1091     Cu1097   1.993       .  S
O1091      C1101   1.271       .  A
O1092     Cu1097   1.998       .  S
O1093      C1102   1.271       .  A
O1094     Cu1098   1.987       .  S
O1094      C1101   1.273       .  A
O1095     Cu1098   2.052       .  S
O1095      C1100   1.280       .  A
O1096     Cu1098   1.996       .  S
O1096      C1099   1.275       .  A
Cu1097    Cu1098   2.370       .  S
C1099      C1135   1.438       .  S
C1100      C1134   1.464       .  S
C1101      C1127   1.420       .  S
C1102      C1120   1.432       .  S
O1103     Cu1111   2.004       .  S
O1103      C1113   1.274       .  A
O1104      C1114   1.268       .  A
O1105     Cu1111   2.064       .  S
O1105      C1115   1.285       .  A
O1106     Cu1111   2.076       .  S
O1106      C1116   1.286       .  A
O1107     Cu1112   2.045       .  S
O1108     Cu1112   2.021       .  S
O1110     Cu1112   2.046       .  S
C1113      C1124   1.449       .  S
C1114      C1121   1.412       .  S
C1115      C1146   1.464       .  S
C1116      C1148   1.476       .  S
C1117      C1118   1.212       .  T
C1119      C1120   1.206       .  T
C1121      C1122   1.193       .  T
C1123      C1124   1.214       .  T
C1125      C1126   1.209       .  T
C1127      C1128   1.198       .  T
C1129      C1130   1.202       .  T
C1131      C1132   1.195       .  T
C1133      C1134   1.224       .  T
C1135      C1136   1.209       .  T
C1137      C1138   1.202       .  T
C1139      C1140   1.201       .  T
C1141      C1142   1.210       .  T
C1143      C1144   1.207       .  T
C1145      C1146   1.224       .  T
C1147      C1148   1.230   1_554  T
C1149      C1150   1.215       .  T
C1151      C1152   1.222       .  T
