geometry optimzed in LAMMPS
_audit_creation_date              2020-11-30 
_audit_creation_method            'lammps2cif' 
_symmetry_space_group_name_H-M    'P1' 
_symmetry_Int_Tables_number       1 
_symmetry_cell_setting            triclinic 
loop_ 
_symmetry_equiv_pos_as_xyz 
  x,y,z 
_cell_length_a                    31.846956562912844 
_cell_length_b                    31.845596653947013 
_cell_length_c                    29.44403156311744 
_cell_angle_alpha                 89.99996149665374 
_cell_angle_beta                  90.00013515992151 
_cell_angle_gamma                 119.99580797837119 
loop_ 
_atom_site_label 
_atom_site_type_symbol 
_atom_site_fract_x 
_atom_site_fract_y 
_atom_site_fract_z 
_atom_site_charge 
O1          O  0.11621916  0.14828139  0.29881646    -0.86790
O2          O  0.03203565  0.14828078  0.29881681    -0.83840
C3          C  0.01745890  0.17541177  0.31451980     0.96670
O4          O  0.03203363  0.21711866  0.29881737    -0.83870
O5          O  0.11621613  0.30130134  0.29881770    -0.86510
C6          C  0.15792127  0.31587544  0.31451938     1.01200
O7          O  0.18505103  0.30129926  0.29881523    -0.79280
O8          O  0.18505115  0.21711548  0.29881590    -0.79460
C9          C  0.15792250  0.17541130  0.31451936     1.01150
O10         O  0.11621877  0.14828132  0.20118478    -0.86790
O11         O  0.03203519  0.14828057  0.20118508    -0.83850
C12         C  0.01745890  0.17541176  0.18548163     0.96690
O13         O  0.03203407  0.21711889  0.20118357    -0.83880
O14         O  0.11621651  0.30130167  0.20118386    -0.86480
C15         C  0.15792136  0.31587520  0.18548181     1.01160
O16         O  0.18505088  0.30129853  0.20118567    -0.79300
O17         O  0.18505126  0.21711489  0.20118630    -0.79450
C18         C  0.15792237  0.17541093  0.18548237     1.01130
Cr19       Cr  0.07797432  0.15597522  0.25000078     1.93740
Cr20       Cr  0.07797181  0.25536348  0.25000063     1.93210
Cr21       Cr  0.17735603  0.25535948  0.25000078     1.39100
O22         O  0.11110053  0.22223273  0.25000073    -1.24540
O23         O  0.21709552  0.03205238  0.03451741    -0.86790
O24         O  0.30127833  0.11623477  0.03451683    -0.83840
C25         C  0.31585383  0.15794202  0.01881498     0.96670
O26         O  0.30127785  0.18507340  0.03451855    -0.83870
O27         O  0.21709463  0.18507338  0.03451798    -0.86510
C28         C  0.17539090  0.15794397  0.01881569     1.01200
O29         O  0.14826180  0.11624014  0.03451969    -0.79280
O30         O  0.14826146  0.03205614  0.03451876    -0.79460
C31         C  0.17539078  0.01747917  0.01881513     1.01150
O32         O  0.21709612  0.03205297  0.13215122    -0.86790
O33         O  0.30127906  0.11623522  0.13215068    -0.83850
C34         C  0.31585383  0.15794208  0.14785315     0.96690
O35         O  0.30127715  0.18507315  0.13215025    -0.83880
O36         O  0.21709406  0.18507340  0.13214972    -0.86480
C37         C  0.17539076  0.15794358  0.14785268     1.01160
O38         O  0.14826203  0.11623935  0.13214924    -0.79300
O39         O  0.14826128  0.03205515  0.13214835    -0.79450
C40         C  0.17539097  0.01747892  0.14785271     1.01110
Cr41       Cr  0.25534057  0.07799052  0.08333404     1.93740
Cr42       Cr  0.25533876  0.17737912  0.08333412     1.93210
Cr43       Cr  0.15595670  0.07799522  0.08333401     1.39100
O44         O  0.22221220  0.11112162  0.08333406    -1.24540
O45         O  0.11621920  0.14828139  0.63214974    -0.86790
O46         O  0.03203569  0.14828080  0.63215015    -0.83840
C47         C  0.01745893  0.17541178  0.64785313     0.96670
O48         O  0.03203364  0.21711866  0.63215069    -0.83870
O49         O  0.11621614  0.30130133  0.63215106    -0.86510
C50         C  0.15792129  0.31587546  0.64785272     1.01200
O51         O  0.18505106  0.30129932  0.63214853    -0.79280
O52         O  0.18505115  0.21711552  0.63214927    -0.79460
C53         C  0.15792251  0.17541131  0.64785269     1.01150
O54         O  0.11621877  0.14828136  0.53451805    -0.86790
O55         O  0.03203518  0.14828060  0.53451842    -0.83850
C56         C  0.01745891  0.17541180  0.51881496     0.96690
O57         O  0.03203411  0.21711894  0.53451689    -0.83880
O58         O  0.11621655  0.30130171  0.53451721    -0.86480
C59         C  0.15792139  0.31587520  0.51881514     1.01160
O60         O  0.18505089  0.30129852  0.53451899    -0.79300
O61         O  0.18505130  0.21711488  0.53451968    -0.79450
C62         C  0.15792240  0.17541095  0.51881571     1.01130
Cr63       Cr  0.07797434  0.15597525  0.58333409     1.93740
Cr64       Cr  0.07797183  0.25536351  0.58333397     1.93210
Cr65       Cr  0.17735605  0.25535950  0.58333412     1.39100
O66         O  0.11110055  0.22223275  0.58333406    -1.24540
O67         O  0.21709566  0.03205251  0.36785067    -0.86790
O68         O  0.30127848  0.11623489  0.36785029    -0.83840
C69         C  0.31585384  0.15794207  0.35214832     0.96670
O70         O  0.30127773  0.18507339  0.36785177    -0.83870
O71         O  0.21709454  0.18507343  0.36785145    -0.86510
C72         C  0.17539089  0.15794395  0.35214903     1.01200
O73         O  0.14826186  0.11624005  0.36785291    -0.79280
O74         O  0.14826148  0.03205603  0.36785220    -0.79460
C75         C  0.17539085  0.01747918  0.35214848     1.01150
O76         O  0.21709606  0.03205287  0.46548447    -0.86790
O77         O  0.30127896  0.11623515  0.46548415    -0.83850
C78         C  0.31585386  0.15794209  0.48118649     0.96690
O79         O  0.30127731  0.18507321  0.46548346    -0.83880
O80         O  0.21709417  0.18507338  0.46548318    -0.86480
C81         C  0.17539080  0.15794361  0.48118602     1.01160
O82         O  0.14826202  0.11623946  0.46548245    -0.79300
O83         O  0.14826133  0.03205528  0.46548179    -0.79450
C84         C  0.17539096  0.01747893  0.48118605     1.01110
Cr85       Cr  0.25534060  0.07799054  0.41666740     1.93740
Cr86       Cr  0.25533878  0.17737914  0.41666746     1.93210
Cr87       Cr  0.15595673  0.07799523  0.41666734     1.39100
O88         O  0.22221223  0.11112164  0.41666740    -1.24540
O89         O  0.11621915  0.14828141  0.96548316    -0.86790
O90         O  0.03203561  0.14828077  0.96548342    -0.83840
C91         C  0.01745892  0.17541177  0.98118647     0.96670
O92         O  0.03203370  0.21711870  0.96548409    -0.83870
O93         O  0.11621620  0.30130138  0.96548436    -0.86510
C94         C  0.15792132  0.31587545  0.98118606     1.01200
O95         O  0.18505106  0.30129924  0.96548192    -0.79280
O96         O  0.18505118  0.21711546  0.96548251    -0.79460
C97         C  0.15792251  0.17541130  0.98118602     1.01150
O98         O  0.11621883  0.14828133  0.86785146    -0.86790
O99         O  0.03203526  0.14828061  0.86785168    -0.83850
C100        C  0.01745893  0.17541179  0.85214829     0.96690
O101        O  0.03203404  0.21711889  0.86785029    -0.83880
O102        O  0.11621650  0.30130165  0.86785051    -0.86480
C103        C  0.15792137  0.31587521  0.85214848     1.01160
O104        O  0.18505090  0.30129857  0.86785237    -0.79300
O105        O  0.18505128  0.21711494  0.86785293    -0.79450
C106        C  0.15792241  0.17541096  0.85214903     1.01130
Cr107      Cr  0.07797434  0.15597524  0.91666743     1.93740
Cr108      Cr  0.07797183  0.25536350  0.91666731     1.93210
Cr109      Cr  0.17735605  0.25535949  0.91666743     1.39100
O110        O  0.11110055  0.22223274  0.91666739    -1.24540
O111        O  0.21709568  0.03205254  0.70118395    -0.86790
O112        O  0.30127852  0.11623491  0.70118365    -0.83840
C113        C  0.31585385  0.15794207  0.68548164     0.96670
O114        O  0.30127770  0.18507338  0.70118506    -0.83870
O115        O  0.21709452  0.18507344  0.70118480    -0.86510
C116        C  0.17539088  0.15794395  0.68548235     1.01200
O117        O  0.14826187  0.11624003  0.70118620    -0.79280
O118        O  0.14826147  0.03205600  0.70118555    -0.79460
C119        C  0.17539086  0.01747918  0.68548180     1.01150
O120        O  0.21709603  0.03205282  0.79881774    -0.86790
O121        O  0.30127892  0.11623511  0.79881749    -0.83850
C122        C  0.31585385  0.15794206  0.81451982     0.96690
O123        O  0.30127733  0.18507320  0.79881676    -0.83880
O124        O  0.21709420  0.18507337  0.79881653    -0.86480
C125        C  0.17539081  0.15794362  0.81451934     1.01160
O126        O  0.14826201  0.11623948  0.79881575    -0.79300
O127        O  0.14826134  0.03205531  0.79881515    -0.79450
C128        C  0.17539095  0.01747893  0.81451937     1.01110
Cr129      Cr  0.25534060  0.07799053  0.75000071     1.93740
Cr130      Cr  0.25533878  0.17737914  0.75000079     1.93210
Cr131      Cr  0.15595672  0.07799523  0.75000066     1.39100
O132        O  0.22221222  0.11112164  0.75000072    -1.24540
O133        O  0.11621916  0.48161475  0.29881649    -0.86790
O134        O  0.03203562  0.48161411  0.29881675    -0.83840
C135        C  0.01745893  0.50874511  0.31451980     0.96670
O136        O  0.03203372  0.55045204  0.29881743    -0.83870
O137        O  0.11621620  0.63463475  0.29881764    -0.86510
C138        C  0.15792130  0.64920879  0.31451938     1.01200
O139        O  0.18505103  0.63463256  0.29881528    -0.79280
O140        O  0.18505119  0.55044880  0.29881585    -0.79460
C141        C  0.15792252  0.50874464  0.31451935     1.01150
O142        O  0.11621886  0.48161468  0.20118479    -0.86790
O143        O  0.03203527  0.48161392  0.20118502    -0.83850
C144        C  0.01745892  0.50874508  0.18548163     0.96690
O145        O  0.03203403  0.55045218  0.20118362    -0.83880
O146        O  0.11621647  0.63463494  0.20118379    -0.86480
C147        C  0.15792136  0.64920854  0.18548180     1.01160
O148        O  0.18505091  0.63463194  0.20118573    -0.79300
O149        O  0.18505130  0.55044830  0.20118627    -0.79450
C150        C  0.15792244  0.50874432  0.18548236     1.01130
Cr151      Cr  0.07797435  0.48930857  0.25000076     1.93740
Cr152      Cr  0.07797183  0.58869683  0.25000062     1.93210
Cr153      Cr  0.17735605  0.58869284  0.25000078     1.39100
O154        O  0.11110055  0.55556608  0.25000072    -1.24540
O155        O  0.21709574  0.36538593  0.03451724    -0.86790
O156        O  0.30127860  0.44956828  0.03451705    -0.83840
C157        C  0.31585386  0.49127541  0.01881498     0.96670
O158        O  0.30127765  0.51840669  0.03451834    -0.83870
O159        O  0.21709450  0.51840679  0.03451819    -0.86510
C160        C  0.17539090  0.49127728  0.01881568     1.01200
O161        O  0.14826191  0.44957332  0.03451947    -0.79280
O162        O  0.14826147  0.36538927  0.03451895    -0.79460
C163        C  0.17539088  0.35081250  0.01881514     1.01150
O164        O  0.21709598  0.36538609  0.13215104    -0.86790
O165        O  0.30127886  0.44956840  0.13215090    -0.83850
C166        C  0.31585386  0.49127538  0.14785316     0.96690
O167        O  0.30127741  0.51840655  0.13215004    -0.83880
O168        O  0.21709427  0.51840670  0.13214992    -0.86480
C169        C  0.17539084  0.49127698  0.14785267     1.01160
O170        O  0.14826201  0.44957288  0.13214902    -0.79300
O171        O  0.14826136  0.36538871  0.13214854    -0.79450
C172        C  0.17539093  0.35081226  0.14785271     1.01110
Cr173      Cr  0.25534060  0.41132386  0.08333406     1.93740
Cr174      Cr  0.25533880  0.51071247  0.08333412     1.93210
Cr175      Cr  0.15595674  0.41132857  0.08333400     1.39100
O176        O  0.22221224  0.44445497  0.08333406    -1.24540
O177        O  0.11621913  0.48161474  0.63214982    -0.86790
O178        O  0.03203561  0.48161413  0.63215011    -0.83840
C179        C  0.01745892  0.50874514  0.64785314     0.96670
O180        O  0.03203370  0.55045205  0.63215075    -0.83870
O181        O  0.11621620  0.63463474  0.63215099    -0.86510
C182        C  0.15792131  0.64920878  0.64785271     1.01200
O183        O  0.18505104  0.63463256  0.63214860    -0.79280
O184        O  0.18505116  0.55044879  0.63214920    -0.79460
C185        C  0.15792249  0.50874462  0.64785269     1.01150
O186        O  0.11621881  0.48161466  0.53451813    -0.86790
O187        O  0.03203524  0.48161394  0.53451836    -0.83850
C188        C  0.01745891  0.50874511  0.51881496     0.96690
O189        O  0.03203403  0.55045221  0.53451695    -0.83880
O190        O  0.11621649  0.63463496  0.53451714    -0.86480
C191        C  0.15792137  0.64920853  0.51881514     1.01160
O192        O  0.18505091  0.63463192  0.53451905    -0.79300
O193        O  0.18505126  0.55044826  0.53451960    -0.79450
C194        C  0.15792239  0.50874428  0.51881570     1.01130
Cr195      Cr  0.07797432  0.48930857  0.58333410     1.93740
Cr196      Cr  0.07797183  0.58869684  0.58333396     1.93210
Cr197      Cr  0.17735604  0.58869282  0.58333411     1.39100
O198        O  0.11110054  0.55556608  0.58333406    -1.24540
O199        O  0.21709560  0.36538578  0.36785069    -0.86790
O200        O  0.30127842  0.44956816  0.36785023    -0.83840
C201        C  0.31585385  0.49127538  0.35214832     0.96670
O202        O  0.30127780  0.51840673  0.36785183    -0.83870
O203        O  0.21709459  0.51840674  0.36785138    -0.86510
C204        C  0.17539090  0.49127730  0.35214902     1.01200
O205        O  0.14826184  0.44957343  0.36785295    -0.79280
O206        O  0.14826147  0.36538940  0.36785215    -0.79460
C207        C  0.17539082  0.35081250  0.35214847     1.01150
O208        O  0.21709608  0.36538623  0.46548449    -0.86790
O209        O  0.30127900  0.44956850  0.46548407    -0.83850
C210        C  0.31585384  0.49127539  0.48118649     0.96690
O211        O  0.30127722  0.51840649  0.46548353    -0.83880
O212        O  0.21709412  0.51840672  0.46548312    -0.86480
C213        C  0.17539078  0.49127693  0.48118601     1.01160
O214        O  0.14826202  0.44957275  0.46548250    -0.79300
O215        O  0.14826132  0.36538856  0.46548174    -0.79450
C216        C  0.17539097  0.35081226  0.48118604     1.01110
Cr217      Cr  0.25534058  0.41132386  0.41666737     1.93740
Cr218      Cr  0.25533878  0.51071246  0.41666746     1.93210
Cr219      Cr  0.15595672  0.41132856  0.41666734     1.39100
O220        O  0.22221222  0.44445496  0.41666739    -1.24540
O221        O  0.11621926  0.48161470  0.96548301    -0.86790
O222        O  0.03203578  0.48161417  0.96548359    -0.83840
C223        C  0.01745893  0.50874511  0.98118648     0.96670
O224        O  0.03203356  0.55045194  0.96548395    -0.83870
O225        O  0.11621610  0.63463460  0.96548445    -0.86510
C226        C  0.15792128  0.64920879  0.98118605     1.01200
O227        O  0.18505108  0.63463271  0.96548181    -0.79280
O228        O  0.18505113  0.55044890  0.96548267    -0.79460
C229        C  0.15792253  0.50874465  0.98118602     1.01150
O230        O  0.11621870  0.48161471  0.86785132    -0.86790
O231        O  0.03203509  0.48161389  0.86785185    -0.83850
C232        C  0.01745890  0.50874513  0.85214831     0.96690
O233        O  0.03203419  0.55045232  0.86785015    -0.83880
O234        O  0.11621660  0.63463510  0.86785061    -0.86480
C235        C  0.15792141  0.64920854  0.85214848     1.01160
O236        O  0.18505088  0.63463178  0.86785226    -0.79300
O237        O  0.18505132  0.55044816  0.86785308    -0.79450
C238        C  0.15792237  0.50874427  0.85214904     1.01130
Cr239      Cr  0.07797433  0.48930858  0.91666744     1.93740
Cr240      Cr  0.07797183  0.58869684  0.91666730     1.93210
Cr241      Cr  0.17735605  0.58869283  0.91666746     1.39100
O242        O  0.11110055  0.55556608  0.91666740    -1.24540
O243        O  0.21709568  0.36538588  0.70118395    -0.86790
O244        O  0.30127851  0.44956825  0.70118365    -0.83840
C245        C  0.31585384  0.49127542  0.68548166     0.96670
O246        O  0.30127770  0.51840673  0.70118509    -0.83870
O247        O  0.21709451  0.51840676  0.70118481    -0.86510
C248        C  0.17539087  0.49127727  0.68548235     1.01200
O249        O  0.14826186  0.44957336  0.70118620    -0.79280
O250        O  0.14826146  0.36538932  0.70118557    -0.79460
C251        C  0.17539085  0.35081251  0.68548181     1.01150
O252        O  0.21709602  0.36538616  0.79881776    -0.86790
O253        O  0.30127891  0.44956846  0.79881750    -0.83850
C254        C  0.31585385  0.49127541  0.81451983     0.96690
O255        O  0.30127732  0.51840655  0.79881678    -0.83880
O256        O  0.21709418  0.51840669  0.79881655    -0.86480
C257        C  0.17539078  0.49127694  0.81451934     1.01160
O258        O  0.14826198  0.44957281  0.79881574    -0.79300
O259        O  0.14826133  0.36538865  0.79881516    -0.79450
C260        C  0.17539094  0.35081227  0.81451938     1.01110
Cr261      Cr  0.25534059  0.41132387  0.75000072     1.93740
Cr262      Cr  0.25533877  0.51071247  0.75000080     1.93210
Cr263      Cr  0.15595671  0.41132856  0.75000067     1.39100
O264        O  0.22221221  0.44445497  0.75000073    -1.24540
O265        O  0.11621918  0.81494807  0.29881645    -0.86790
O266        O  0.03203565  0.81494745  0.29881678    -0.83840
C267        C  0.01745893  0.84207844  0.31451981     0.96670
O268        O  0.03203369  0.88378535  0.29881741    -0.83870
O269        O  0.11621618  0.96796804  0.29881770    -0.86510
C270        C  0.15792131  0.98254213  0.31451939     1.01200
O271        O  0.18505106  0.96796594  0.29881525    -0.79280
O272        O  0.18505117  0.88378216  0.29881590    -0.79460
C273        C  0.15792252  0.84207798  0.31451936     1.01150
O274        O  0.11621881  0.81494803  0.20118476    -0.86790
O275        O  0.03203523  0.81494727  0.20118505    -0.83850
C276        C  0.01745892  0.84207845  0.18548163     0.96690
O277        O  0.03203407  0.88378557  0.20118360    -0.83880
O278        O  0.11621652  0.96796833  0.20118384    -0.86480
C279        C  0.15792139  0.98254187  0.18548181     1.01160
O280        O  0.18505091  0.96796523  0.20118571    -0.79300
O281        O  0.18505131  0.88378159  0.20118631    -0.79450
C282        C  0.15792242  0.84207764  0.18548237     1.01130
Cr283      Cr  0.07797435  0.82264192  0.25000076     1.93740
Cr284      Cr  0.07797184  0.92203017  0.25000064     1.93210
Cr285      Cr  0.17735606  0.92202617  0.25000079     1.39100
O286        O  0.11110056  0.88889942  0.25000073    -1.24540
O287        O  0.21709567  0.69871922  0.03451729    -0.86790
O288        O  0.30127852  0.78290158  0.03451699    -0.83840
C289        C  0.31585385  0.82460874  0.01881498     0.96670
O290        O  0.30127771  0.85174005  0.03451840    -0.83870
O291        O  0.21709454  0.85174013  0.03451814    -0.86510
C292        C  0.17539090  0.82461064  0.01881569     1.01200
O293        O  0.14826188  0.78290672  0.03451953    -0.79280
O294        O  0.14826146  0.69872268  0.03451889    -0.79460
C295        C  0.17539085  0.68414585  0.01881514     1.01150
O296        O  0.21709602  0.69871950  0.13215110    -0.86790
O297        O  0.30127892  0.78290179  0.13215084    -0.83850
C298        C  0.31585386  0.82460874  0.14785316     0.96690
O299        O  0.30127734  0.85173988  0.13215010    -0.83880
O300        O  0.21709421  0.85174005  0.13214987    -0.86480
C301        C  0.17539082  0.82461030  0.14785268     1.01160
O302        O  0.14826202  0.78290617  0.13214908    -0.79300
O303        O  0.14826133  0.69872198  0.13214848    -0.79450
C304        C  0.17539094  0.68414560  0.14785271     1.01110
Cr305      Cr  0.25534060  0.74465721  0.08333405     1.93740
Cr306      Cr  0.25533879  0.84404582  0.08333413     1.93210
Cr307      Cr  0.15595673  0.74466192  0.08333400     1.39100
O308        O  0.22221223  0.77778832  0.08333406    -1.24540
O309        O  0.11621914  0.81494806  0.63214980    -0.86790
O310        O  0.03203562  0.81494745  0.63215011    -0.83840
C311        C  0.01745892  0.84207845  0.64785313     0.96670
O312        O  0.03203368  0.88378536  0.63215074    -0.83870
O313        O  0.11621618  0.96796805  0.63215101    -0.86510
C314        C  0.15792130  0.98254212  0.64785272     1.01200
O315        O  0.18505104  0.96796591  0.63214859    -0.79280
O316        O  0.18505116  0.88378213  0.63214922    -0.79460
C317        C  0.15792249  0.84207795  0.64785269     1.01150
O318        O  0.11621880  0.81494800  0.53451811    -0.86790
O319        O  0.03203524  0.81494727  0.53451836    -0.83850
C320        C  0.01745891  0.84207845  0.51881496     0.96690
O321        O  0.03203405  0.88378556  0.53451694    -0.83880
O322        O  0.11621651  0.96796831  0.53451716    -0.86480
C323        C  0.15792138  0.98254187  0.51881515     1.01160
O324        O  0.18505091  0.96796523  0.53451904    -0.79300
O325        O  0.18505128  0.88378158  0.53451962    -0.79450
C326        C  0.15792240  0.84207761  0.51881571     1.01130
Cr327      Cr  0.07797433  0.82264190  0.58333409     1.93740
Cr328      Cr  0.07797183  0.92203017  0.58333396     1.93210
Cr329      Cr  0.17735604  0.92202615  0.58333412     1.39100
O330        O  0.11110054  0.88889941  0.58333406    -1.24540
O331        O  0.21709563  0.69871914  0.36785068    -0.86790
O332        O  0.30127845  0.78290153  0.36785026    -0.83840
C333        C  0.31585385  0.82460873  0.35214832     0.96670
O334        O  0.30127776  0.85174006  0.36785180    -0.83870
O335        O  0.21709457  0.85174009  0.36785142    -0.86510
C336        C  0.17539090  0.82461063  0.35214902     1.01200
O337        O  0.14826185  0.78290675  0.36785293    -0.79280
O338        O  0.14826148  0.69872273  0.36785215    -0.79460
C339        C  0.17539084  0.68414584  0.35214846     1.01150
O340        O  0.21709607  0.69871956  0.46548449    -0.86790
O341        O  0.30127898  0.78290183  0.46548411    -0.83850
C342        C  0.31585385  0.82460874  0.48118649     0.96690
O343        O  0.30127727  0.85173986  0.46548349    -0.83880
O344        O  0.21709415  0.85174005  0.46548315    -0.86480
C345        C  0.17539079  0.82461027  0.48118601     1.01160
O346        O  0.14826202  0.78290610  0.46548247    -0.79300
O347        O  0.14826131  0.69872191  0.46548175    -0.79450
C348        C  0.17539095  0.68414559  0.48118604     1.01110
Cr349      Cr  0.25534059  0.74465720  0.41666739     1.93740
Cr350      Cr  0.25533878  0.84404581  0.41666746     1.93210
Cr351      Cr  0.15595672  0.74466190  0.41666733     1.39100
O352        O  0.22221222  0.77778830  0.41666739    -1.24540
O353        O  0.11621928  0.81494803  0.96548298    -0.86790
O354        O  0.03203579  0.81494750  0.96548360    -0.83840
C355        C  0.01745892  0.84207842  0.98118647     0.96670
O356        O  0.03203351  0.88378524  0.96548392    -0.83870
O357        O  0.11621603  0.96796790  0.96548446    -0.86510
C358        C  0.15792123  0.98254212  0.98118604     1.01200
O359        O  0.18505105  0.96796607  0.96548178    -0.79280
O360        O  0.18505111  0.88378227  0.96548270    -0.79460
C361        C  0.15792253  0.84207800  0.98118602     1.01150
O362        O  0.11621867  0.81494805  0.86785129    -0.86790
O363        O  0.03203505  0.81494722  0.86785185    -0.83850
C364        C  0.01745890  0.84207847  0.85214829     0.96690
O365        O  0.03203420  0.88378568  0.86785011    -0.83880
O366        O  0.11621660  0.96796847  0.86785062    -0.86480
C367        C  0.15792139  0.98254187  0.85214846     1.01160
O368        O  0.18505085  0.96796508  0.86785222    -0.79300
O369        O  0.18505131  0.88378147  0.86785310    -0.79450
C370        C  0.15792236  0.84207759  0.85214903     1.01130
Cr371      Cr  0.07797432  0.82264191  0.91666743     1.93740
Cr372      Cr  0.07797181  0.92203017  0.91666728     1.93210
Cr373      Cr  0.17735603  0.92202616  0.91666745     1.39100
O374        O  0.11110053  0.88889941  0.91666739    -1.24540
O375        O  0.21709567  0.69871918  0.70118397    -0.86790
O376        O  0.30127849  0.78290156  0.70118362    -0.83840
C377        C  0.31585384  0.82460874  0.68548165     0.96670
O378        O  0.30127772  0.85174006  0.70118510    -0.83870
O379        O  0.21709452  0.85174008  0.70118479    -0.86510
C380        C  0.17539087  0.82461060  0.68548236     1.01200
O381        O  0.14826184  0.78290670  0.70118622    -0.79280
O382        O  0.14826147  0.69872268  0.70118553    -0.79460
C383        C  0.17539085  0.68414584  0.68548180     1.01150
O384        O  0.21709606  0.69871951  0.79881777    -0.86790
O385        O  0.30127894  0.78290181  0.79881747    -0.83850
C386        C  0.31585385  0.82460874  0.81451982     0.96690
O387        O  0.30127729  0.85173987  0.79881679    -0.83880
O388        O  0.21709415  0.85174002  0.79881653    -0.86480
C389        C  0.17539077  0.82461026  0.81451934     1.01160
O390        O  0.14826199  0.78290611  0.79881577    -0.79300
O391        O  0.14826134  0.69872195  0.79881513    -0.79450
C392        C  0.17539097  0.68414559  0.81451938     1.01110
Cr393      Cr  0.25534060  0.74465720  0.75000071     1.93740
Cr394      Cr  0.25533876  0.84404580  0.75000080     1.93210
Cr395      Cr  0.15595672  0.74466189  0.75000067     1.39100
O396        O  0.22221222  0.77778830  0.75000073    -1.24540
O397        O  0.44955247  0.14828139  0.29881647    -0.86790
O398        O  0.36536895  0.14828078  0.29881677    -0.83840
C399        C  0.35079224  0.17541178  0.31451980     0.96670
O400        O  0.36536700  0.21711869  0.29881740    -0.83870
O401        O  0.44954949  0.30130137  0.29881767    -0.86510
C402        C  0.49125461  0.31587544  0.31451938     1.01200
O403        O  0.51838435  0.30129923  0.29881526    -0.79280
O404        O  0.51838448  0.21711546  0.29881587    -0.79460
C405        C  0.49125582  0.17541128  0.31451935     1.01150
O406        O  0.44955212  0.14828132  0.20118478    -0.86790
O407        O  0.36536855  0.14828059  0.20118503    -0.83850
C408        C  0.35079222  0.17541177  0.18548163     0.96690
O409        O  0.36536736  0.21711888  0.20118360    -0.83880
O410        O  0.44954981  0.30130164  0.20118383    -0.86480
C411        C  0.49125468  0.31587520  0.18548181     1.01160
O412        O  0.51838421  0.30129856  0.20118570    -0.79300
O413        O  0.51838458  0.21711491  0.20118627    -0.79450
C414        C  0.49125571  0.17541094  0.18548236     1.01130
Cr415      Cr  0.41130764  0.15597523  0.25000076     1.93740
Cr416      Cr  0.41130514  0.25536349  0.25000063     1.93210
Cr417      Cr  0.51068935  0.25535948  0.25000077     1.39100
O418        O  0.44443385  0.22223273  0.25000072    -1.24540
O419        O  0.55042891  0.03205243  0.03451737    -0.86790
O420        O  0.63461172  0.11623481  0.03451687    -0.83840
C421        C  0.64918717  0.15794204  0.01881498     0.96670
O422        O  0.63461115  0.18507340  0.03451852    -0.83870
O423        O  0.55042794  0.18507340  0.03451804    -0.86510
C424        C  0.50872424  0.15794396  0.01881568     1.01200
O425        O  0.48159517  0.11624010  0.03451963    -0.79280
O426        O  0.48159480  0.03205608  0.03451880    -0.79460
C427        C  0.50872414  0.01747916  0.01881513     1.01150
O428        O  0.55042943  0.03205292  0.13215118    -0.86790
O429        O  0.63461236  0.11623518  0.13215072    -0.83850
C430        C  0.64918717  0.15794206  0.14785316     0.96690
O431        O  0.63461053  0.18507315  0.13215021    -0.83880
O432        O  0.55042743  0.18507339  0.13214977    -0.86480
C433        C  0.50872410  0.15794359  0.14785267     1.01160
O434        O  0.48159535  0.11623939  0.13214918    -0.79300
O435        O  0.48159464  0.03205520  0.13214839    -0.79450
C436        C  0.50872430  0.01747893  0.14785271     1.01110
Cr437      Cr  0.58867392  0.07799052  0.08333404     1.93740
Cr438      Cr  0.58867210  0.17737913  0.08333413     1.93210
Cr439      Cr  0.48929005  0.07799522  0.08333400     1.39100
O440        O  0.55554555  0.11112162  0.08333406    -1.24540
O441        O  0.44955258  0.14828139  0.63214971    -0.86790
O442        O  0.36536909  0.14828083  0.63215022    -0.83840
C443        C  0.35079226  0.17541178  0.64785314     0.96670
O444        O  0.36536692  0.21711863  0.63215063    -0.83870
O445        O  0.44954945  0.30130128  0.63215111    -0.86510
C446        C  0.49125463  0.31587546  0.64785272     1.01200
O447        O  0.51838442  0.30129937  0.63214848    -0.79280
O448        O  0.51838448  0.21711556  0.63214932    -0.79460
C449        C  0.49125587  0.17541133  0.64785270     1.01150
O450        O  0.44955207  0.14828137  0.53451802    -0.86790
O451        O  0.36536847  0.14828058  0.53451848    -0.83850
C452        C  0.35079226  0.17541181  0.51881496     0.96690
O453        O  0.36536751  0.21711899  0.53451683    -0.83880
O454        O  0.44954994  0.30130176  0.53451726    -0.86480
C455        C  0.49125475  0.31587521  0.51881514     1.01160
O456        O  0.51838423  0.30129847  0.53451894    -0.79300
O457        O  0.51838465  0.21711484  0.53451973    -0.79450
C458        C  0.49125572  0.17541094  0.51881571     1.01130
Cr459      Cr  0.41130768  0.15597525  0.58333410     1.93740
Cr460      Cr  0.41130518  0.25536351  0.58333396     1.93210
Cr461      Cr  0.51068939  0.25535950  0.58333412     1.39100
O462        O  0.44443389  0.22223275  0.58333406    -1.24540
O463        O  0.55042899  0.03205251  0.36785066    -0.86790
O464        O  0.63461182  0.11623489  0.36785029    -0.83840
C465        C  0.64918717  0.15794207  0.35214832     0.96670
O466        O  0.63461106  0.18507339  0.36785176    -0.83870
O467        O  0.55042786  0.18507341  0.36785143    -0.86510
C468        C  0.50872420  0.15794394  0.35214902     1.01200
O469        O  0.48159518  0.11624004  0.36785290    -0.79280
O470        O  0.48159481  0.03205603  0.36785220    -0.79460
C471        C  0.50872419  0.01747918  0.35214848     1.01150
O472        O  0.55042940  0.03205286  0.46548447    -0.86790
O473        O  0.63461229  0.11623516  0.46548415    -0.83850
C474        C  0.64918719  0.15794209  0.48118649     0.96690
O475        O  0.63461063  0.18507322  0.46548345    -0.83880
O476        O  0.55042749  0.18507337  0.46548318    -0.86480
C477        C  0.50872412  0.15794360  0.48118601     1.01160
O478        O  0.48159534  0.11623945  0.46548245    -0.79300
O479        O  0.48159467  0.03205528  0.46548179    -0.79450
C480        C  0.50872430  0.01747893  0.48118605     1.01110
Cr481      Cr  0.58867393  0.07799054  0.41666739     1.93740
Cr482      Cr  0.58867210  0.17737914  0.41666745     1.93210
Cr483      Cr  0.48929006  0.07799523  0.41666734     1.39100
O484        O  0.55554556  0.11112164  0.41666740    -1.24540
O485        O  0.44955254  0.14828139  0.96548309    -0.86790
O486        O  0.36536901  0.14828077  0.96548349    -0.83840
C487        C  0.35079224  0.17541174  0.98118647     0.96670
O488        O  0.36536695  0.21711863  0.96548403    -0.83870
O489        O  0.44954946  0.30130130  0.96548442    -0.86510
C490        C  0.49125462  0.31587544  0.98118606     1.01200
O491        O  0.51838440  0.30129930  0.96548186    -0.79280
O492        O  0.51838450  0.21711551  0.96548258    -0.79460
C493        C  0.49125586  0.17541131  0.98118602     1.01150
O494        O  0.44955210  0.14828134  0.86785140    -0.86790
O495        O  0.36536851  0.14828057  0.86785176    -0.83850
C496        C  0.35079225  0.17541178  0.85214829     0.96690
O497        O  0.36536744  0.21711892  0.86785022    -0.83880
O498        O  0.44954987  0.30130171  0.86785057    -0.86480
C499        C  0.49125470  0.31587520  0.85214848     1.01160
O500        O  0.51838421  0.30129850  0.86785231    -0.79300
O501        O  0.51838462  0.21711488  0.86785299    -0.79450
C502        C  0.49125572  0.17541094  0.85214903     1.01130
Cr503      Cr  0.41130767  0.15597523  0.91666743     1.93740
Cr504      Cr  0.41130515  0.25536349  0.91666731     1.93210
Cr505      Cr  0.51068937  0.25535948  0.91666744     1.39100
O506        O  0.44443387  0.22223273  0.91666739    -1.24540
O507        O  0.55042898  0.03205249  0.70118399    -0.86790
O508        O  0.63461180  0.11623487  0.70118360    -0.83840
C509        C  0.64918718  0.15794206  0.68548165     0.96670
O510        O  0.63461109  0.18507340  0.70118512    -0.83870
O511        O  0.55042790  0.18507344  0.70118478    -0.86510
C512        C  0.50872424  0.15794397  0.68548236     1.01200
O513        O  0.48159520  0.11624007  0.70118624    -0.79280
O514        O  0.48159481  0.03205604  0.70118551    -0.79460
C515        C  0.50872418  0.01747917  0.68548180     1.01150
O516        O  0.55042940  0.03205286  0.79881779    -0.86790
O517        O  0.63461231  0.11623514  0.79881744    -0.83850
C518        C  0.64918719  0.15794206  0.81451982     0.96690
O519        O  0.63461061  0.18507318  0.79881682    -0.83880
O520        O  0.55042750  0.18507337  0.79881651    -0.86480
C521        C  0.50872413  0.15794360  0.81451934     1.01160
O522        O  0.48159535  0.11623944  0.79881578    -0.79300
O523        O  0.48159467  0.03205526  0.79881511    -0.79450
C524        C  0.50872430  0.01747892  0.81451937     1.01110
Cr525      Cr  0.58867393  0.07799053  0.75000071     1.93740
Cr526      Cr  0.58867212  0.17737914  0.75000080     1.93210
Cr527      Cr  0.48929006  0.07799523  0.75000066     1.39100
O528        O  0.55554556  0.11112163  0.75000072    -1.24540
O529        O  0.44955256  0.48161473  0.29881641    -0.86790
O530        O  0.36536905  0.48161414  0.29881685    -0.83840
C531        C  0.35079226  0.50874510  0.31451981     0.96670
O532        O  0.36536693  0.55045196  0.29881733    -0.83870
O533        O  0.44954944  0.63463465  0.29881773    -0.86510
C534        C  0.49125459  0.64920879  0.31451938     1.01200
O535        O  0.51838437  0.63463265  0.29881520    -0.79280
O536        O  0.51838449  0.55044888  0.29881595    -0.79460
C537        C  0.49125587  0.50874466  0.31451936     1.01150
O538        O  0.44955210  0.48161470  0.20118471    -0.86790
O539        O  0.36536849  0.48161390  0.20118512    -0.83850
C540        C  0.35079225  0.50874511  0.18548163     0.96690
O541        O  0.36536746  0.55045227  0.20118352    -0.83880
O542        O  0.44954988  0.63463505  0.20118389    -0.86480
C543        C  0.49125472  0.64920854  0.18548181     1.01160
O544        O  0.51838422  0.63463184  0.20118564    -0.79300
O545        O  0.51838464  0.55044822  0.20118636    -0.79450
C546        C  0.49125573  0.50874429  0.18548237     1.01130
Cr547      Cr  0.41130767  0.48930858  0.25000077     1.93740
Cr548      Cr  0.41130515  0.58869683  0.25000062     1.93210
Cr549      Cr  0.51068938  0.58869284  0.25000079     1.39100
O550        O  0.44443388  0.55556608  0.25000073    -1.24540
O551        O  0.55042904  0.36538592  0.03451725    -0.86790
O552        O  0.63461189  0.44956828  0.03451702    -0.83840
C553        C  0.64918718  0.49127542  0.01881498     0.96670
O554        O  0.63461099  0.51840671  0.03451837    -0.83870
O555        O  0.55042782  0.51840679  0.03451819    -0.86510
C556        C  0.50872422  0.49127728  0.01881568     1.01200
O557        O  0.48159522  0.44957333  0.03451947    -0.79280
O558        O  0.48159478  0.36538927  0.03451894    -0.79460
C559        C  0.50872418  0.35081250  0.01881514     1.01150
O560        O  0.55042930  0.36538611  0.13215105    -0.86790
O561        O  0.63461220  0.44956841  0.13215087    -0.83850
C562        C  0.64918718  0.49127538  0.14785316     0.96690
O563        O  0.63461070  0.51840654  0.13215006    -0.83880
O564        O  0.55042756  0.51840669  0.13214992    -0.86480
C565        C  0.50872414  0.49127697  0.14785267     1.01160
O566        O  0.48159532  0.44957286  0.13214902    -0.79300
O567        O  0.48159467  0.36538870  0.13214853    -0.79450
C568        C  0.50872425  0.35081226  0.14785271     1.01110
Cr569      Cr  0.58867392  0.41132386  0.08333405     1.93740
Cr570      Cr  0.58867211  0.51071247  0.08333413     1.93210
Cr571      Cr  0.48929005  0.41132857  0.08333399     1.39100
O572        O  0.55554555  0.44445497  0.08333406    -1.24540
O573        O  0.44955243  0.48161473  0.63214985    -0.86790
O574        O  0.36536890  0.48161411  0.63215007    -0.83840
C575        C  0.35079225  0.50874514  0.64785314     0.96670
O576        O  0.36536707  0.55045208  0.63215079    -0.83870
O577        O  0.44954956  0.63463478  0.63215095    -0.86510
C578        C  0.49125465  0.64920878  0.64785271     1.01200
O579        O  0.51838436  0.63463251  0.63214864    -0.79280
O580        O  0.51838450  0.55044875  0.63214917    -0.79460
C581        C  0.49125581  0.50874460  0.64785269     1.01150
O582        O  0.44955217  0.48161464  0.53451817    -0.86790
O583        O  0.36536861  0.48161394  0.53451832    -0.83850
C584        C  0.35079223  0.50874509  0.51881497     0.96690
O585        O  0.36536731  0.55045217  0.53451699    -0.83880
O586        O  0.44954978  0.63463490  0.53451710    -0.86480
C587        C  0.49125469  0.64920852  0.51881514     1.01160
O588        O  0.51838425  0.63463195  0.53451909    -0.79300
O589        O  0.51838458  0.55044828  0.53451957    -0.79450
C590        C  0.49125573  0.50874428  0.51881570     1.01130
Cr591      Cr  0.41130765  0.48930857  0.58333410     1.93740
Cr592      Cr  0.41130516  0.58869683  0.58333396     1.93210
Cr593      Cr  0.51068937  0.58869281  0.58333411     1.39100
O594        O  0.44443387  0.55556607  0.58333406    -1.24540
O595        O  0.55042891  0.36538574  0.36785073    -0.86790
O596        O  0.63461171  0.44956814  0.36785019    -0.83840
C597        C  0.64918718  0.49127538  0.35214831     0.96670
O598        O  0.63461117  0.51840675  0.36785186    -0.83870
O599        O  0.55042796  0.51840674  0.36785136    -0.86510
C600        C  0.50872425  0.49127731  0.35214902     1.01200
O601        O  0.48159517  0.44957346  0.36785298    -0.79280
O602        O  0.48159482  0.36538945  0.36785211    -0.79460
C603        C  0.50872415  0.35081250  0.35214847     1.01150
O604        O  0.55042946  0.36538628  0.46548453    -0.86790
O605        O  0.63461239  0.44956854  0.46548403    -0.83850
C606        C  0.64918719  0.49127541  0.48118649     0.96690
O607        O  0.63461053  0.51840649  0.46548356    -0.83880
O608        O  0.55042743  0.51840674  0.46548309    -0.86480
C609        C  0.50872411  0.49127693  0.48118601     1.01160
O610        O  0.48159538  0.44957272  0.46548254    -0.79300
O611        O  0.48159466  0.36538852  0.46548171    -0.79450
C612        C  0.50872433  0.35081226  0.48118604     1.01110
Cr613      Cr  0.58867393  0.41132386  0.41666737     1.93740
Cr614      Cr  0.58867212  0.51071247  0.41666746     1.93210
Cr615      Cr  0.48929006  0.41132857  0.41666734     1.39100
O616        O  0.55554556  0.44445497  0.41666739    -1.24540
O617        O  0.44955258  0.48161471  0.96548302    -0.86790
O618        O  0.36536909  0.48161416  0.96548354    -0.83840
C619        C  0.35079227  0.50874511  0.98118647     0.96670
O620        O  0.36536693  0.55045196  0.96548398    -0.83870
O621        O  0.44954945  0.63463463  0.96548442    -0.86510
C622        C  0.49125462  0.64920880  0.98118605     1.01200
O623        O  0.51838441  0.63463269  0.96548184    -0.79280
O624        O  0.51838448  0.55044889  0.96548265    -0.79460
C625        C  0.49125586  0.50874465  0.98118602     1.01150
O626        O  0.44955208  0.48161472  0.86785133    -0.86790
O627        O  0.36536847  0.48161391  0.86785180    -0.83850
C628        C  0.35079225  0.50874513  0.85214830     0.96690
O629        O  0.36536749  0.55045230  0.86785018    -0.83880
O630        O  0.44954992  0.63463508  0.86785057    -0.86480
C631        C  0.49125474  0.64920854  0.85214847     1.01160
O632        O  0.51838423  0.63463182  0.86785229    -0.79300
O633        O  0.51838467  0.55044820  0.86785306    -0.79450
C634        C  0.49125574  0.50874429  0.85214903     1.01130
Cr635      Cr  0.41130768  0.48930858  0.91666742     1.93740
Cr636      Cr  0.41130517  0.58869684  0.91666729     1.93210
Cr637      Cr  0.51068939  0.58869284  0.91666746     1.39100
O638        O  0.44443389  0.55556609  0.91666739    -1.24540
O639        O  0.55042907  0.36538596  0.70118388    -0.86790
O640        O  0.63461192  0.44956831  0.70118371    -0.83840
C641        C  0.64918718  0.49127544  0.68548165     0.96670
O642        O  0.63461097  0.51840671  0.70118501    -0.83870
O643        O  0.55042779  0.51840678  0.70118486    -0.86510
C644        C  0.50872419  0.49127725  0.68548236     1.01200
O645        O  0.48159521  0.44957330  0.70118615    -0.79280
O646        O  0.48159477  0.36538924  0.70118564    -0.79460
C647        C  0.50872419  0.35081251  0.68548181     1.01150
O648        O  0.55042930  0.36538608  0.79881768    -0.86790
O649        O  0.63461218  0.44956840  0.79881756    -0.83850
C650        C  0.64918719  0.49127538  0.81451983     0.96690
O651        O  0.63461073  0.51840656  0.79881671    -0.83880
O652        O  0.55042758  0.51840669  0.79881661    -0.86480
C653        C  0.50872415  0.49127697  0.81451934     1.01160
O654        O  0.48159532  0.44957287  0.79881569    -0.79300
O655        O  0.48159469  0.36538873  0.79881523    -0.79450
C656        C  0.50872427  0.35081226  0.81451938     1.01110
Cr657      Cr  0.58867393  0.41132387  0.75000071     1.93740
Cr658      Cr  0.58867211  0.51071247  0.75000079     1.93210
Cr659      Cr  0.48929005  0.41132857  0.75000068     1.39100
O660        O  0.55554555  0.44445497  0.75000073    -1.24540
O661        O  0.44955254  0.81494808  0.29881644    -0.86790
O662        O  0.36536902  0.81494747  0.29881682    -0.83840
C663        C  0.35079226  0.84207845  0.31451981     0.96670
O664        O  0.36536698  0.88378533  0.29881737    -0.83870
O665        O  0.44954949  0.96796801  0.29881772    -0.86510
C666        C  0.49125464  0.98254212  0.31451939     1.01200
O667        O  0.51838440  0.96796597  0.29881522    -0.79280
O668        O  0.51838451  0.88378219  0.29881592    -0.79460
C669        C  0.49125587  0.84207799  0.31451936     1.01150
O670        O  0.44955213  0.81494803  0.20118474    -0.86790
O671        O  0.36536853  0.81494726  0.20118509    -0.83850
C672        C  0.35079226  0.84207846  0.18548163     0.96690
O673        O  0.36536744  0.88378560  0.20118356    -0.83880
O674        O  0.44954988  0.96796836  0.20118387    -0.86480
C675        C  0.49125473  0.98254187  0.18548181     1.01160
O676        O  0.51838424  0.96796520  0.20118567    -0.79300
O677        O  0.51838464  0.88378157  0.20118633    -0.79450
C678        C  0.49125574  0.84207763  0.18548237     1.01130
Cr679      Cr  0.41130768  0.82264192  0.25000077     1.93740
Cr680      Cr  0.41130517  0.92203017  0.25000064     1.93210
Cr681      Cr  0.51068939  0.92202617  0.25000078     1.39100
O682        O  0.44443389  0.88889942  0.25000073    -1.24540
O683        O  0.55042901  0.69871921  0.03451729    -0.86790
O684        O  0.63461185  0.78290158  0.03451698    -0.83840
C685        C  0.64918719  0.82460874  0.01881498     0.96670
O686        O  0.63461105  0.85174006  0.03451841    -0.83870
O687        O  0.55042788  0.85174011  0.03451813    -0.86510
C688        C  0.50872423  0.82461063  0.01881569     1.01200
O689        O  0.48159521  0.78290672  0.03451954    -0.79280
O690        O  0.48159480  0.69872268  0.03451888    -0.79460
C691        C  0.50872418  0.68414585  0.01881513     1.01150
O692        O  0.55042937  0.69871951  0.13215110    -0.86790
O693        O  0.63461226  0.78290180  0.13215083    -0.83850
C694        C  0.64918719  0.82460874  0.14785316     0.96690
O695        O  0.63461066  0.85173988  0.13215011    -0.83880
O696        O  0.55042753  0.85174005  0.13214986    -0.86480
C697        C  0.50872414  0.82461029  0.14785268     1.01160
O698        O  0.48159535  0.78290615  0.13214910    -0.79300
O699        O  0.48159467  0.69872198  0.13214848    -0.79450
C700        C  0.50872429  0.68414560  0.14785271     1.01110
Cr701      Cr  0.58867393  0.74465721  0.08333405     1.93740
Cr702      Cr  0.58867212  0.84404582  0.08333412     1.93210
Cr703      Cr  0.48929006  0.74466191  0.08333400     1.39100
O704        O  0.55554556  0.77778831  0.08333406    -1.24540
O705        O  0.44955251  0.81494805  0.63214978    -0.86790
O706        O  0.36536900  0.81494747  0.63215015    -0.83840
C707        C  0.35079225  0.84207845  0.64785314     0.96670
O708        O  0.36536698  0.88378534  0.63215070    -0.83870
O709        O  0.44954949  0.96796802  0.63215103    -0.86510
C710        C  0.49125462  0.98254212  0.64785272     1.01200
O711        O  0.51838438  0.96796594  0.63214856    -0.79280
O712        O  0.51838448  0.88378216  0.63214925    -0.79460
C713        C  0.49125583  0.84207796  0.64785270     1.01150
O714        O  0.44955210  0.81494800  0.53451809    -0.86790
O715        O  0.36536852  0.81494725  0.53451841    -0.83850
C716        C  0.35079224  0.84207845  0.51881496     0.96690
O717        O  0.36536743  0.88378559  0.53451690    -0.83880
O718        O  0.44954987  0.96796835  0.53451719    -0.86480
C719        C  0.49125472  0.98254187  0.51881514     1.01160
O720        O  0.51838423  0.96796520  0.53451901    -0.79300
O721        O  0.51838461  0.88378155  0.53451966    -0.79450
C722        C  0.49125571  0.84207760  0.51881571     1.01130
Cr723      Cr  0.41130766  0.82264190  0.58333411     1.93740
Cr724      Cr  0.41130516  0.92203017  0.58333396     1.93210
Cr725      Cr  0.51068937  0.92202615  0.58333412     1.39100
O726        O  0.44443387  0.88889941  0.58333406    -1.24540
O727        O  0.55042890  0.69871908  0.36785073    -0.86790
O728        O  0.63461171  0.78290147  0.36785021    -0.83840
C729        C  0.64918717  0.82460870  0.35214832     0.96670
O730        O  0.63461115  0.85174007  0.36785185    -0.83870
O731        O  0.55042795  0.85174008  0.36785138    -0.86510
C732        C  0.50872425  0.82461065  0.35214903     1.01200
O733        O  0.48159517  0.78290680  0.36785298    -0.79280
O734        O  0.48159480  0.69872278  0.36785212    -0.79460
C735        C  0.50872413  0.68414584  0.35214847     1.01150
O736        O  0.55042942  0.69871960  0.46548453    -0.86790
O737        O  0.63461236  0.78290185  0.46548405    -0.83850
C738        C  0.64918718  0.82460873  0.48118649     0.96690
O739        O  0.63461053  0.85173982  0.46548355    -0.83880
O740        O  0.55042744  0.85174006  0.46548311    -0.86480
C741        C  0.50872411  0.82461025  0.48118602     1.01160
O742        O  0.48159536  0.78290606  0.46548252    -0.79300
O743        O  0.48159462  0.69872185  0.46548170    -0.79450
C744        C  0.50872428  0.68414559  0.48118604     1.01110
Cr745      Cr  0.58867391  0.74465719  0.41666738     1.93740
Cr746      Cr  0.58867211  0.84404580  0.41666747     1.93210
Cr747      Cr  0.48929004  0.74466190  0.41666733     1.39100
O748        O  0.55554554  0.77778830  0.41666740    -1.24540
O749        O  0.44955258  0.81494804  0.96548302    -0.86790
O750        O  0.36536909  0.81494749  0.96548356    -0.83840
C751        C  0.35079226  0.84207844  0.98118647     0.96670
O752        O  0.36536690  0.88378528  0.96548395    -0.83870
O753        O  0.44954942  0.96796794  0.96548443    -0.86510
C754        C  0.49125459  0.98254211  0.98118604     1.01200
O755        O  0.51838439  0.96796602  0.96548182    -0.79280
O756        O  0.51838447  0.88378223  0.96548265    -0.79460
C757        C  0.49125586  0.84207799  0.98118602     1.01150
O758        O  0.44955204  0.81494803  0.86785133    -0.86790
O759        O  0.36536844  0.81494723  0.86785182    -0.83850
C760        C  0.35079224  0.84207846  0.85214829     0.96690
O761        O  0.36536750  0.88378564  0.86785015    -0.83880
O762        O  0.44954992  0.96796842  0.86785058    -0.86480
C763        C  0.49125473  0.98254186  0.85214846     1.01160
O764        O  0.51838421  0.96796512  0.86785226    -0.79300
O765        O  0.51838464  0.88378149  0.86785306    -0.79450
C766        C  0.49125570  0.84207759  0.85214904     1.01130
Cr767      Cr  0.41130766  0.82264191  0.91666743     1.93740
Cr768      Cr  0.41130516  0.92203017  0.91666728     1.93210
Cr769      Cr  0.51068937  0.92202616  0.91666745     1.39100
O770        O  0.44443387  0.88889941  0.91666739    -1.24540
O771        O  0.55042901  0.69871919  0.70118396    -0.86790
O772        O  0.63461182  0.78290157  0.70118362    -0.83840
C773        C  0.64918717  0.82460875  0.68548164     0.96670
O774        O  0.63461104  0.85174006  0.70118509    -0.83870
O775        O  0.55042785  0.85174009  0.70118481    -0.86510
C776        C  0.50872421  0.82461061  0.68548236     1.01200
O777        O  0.48159519  0.78290669  0.70118621    -0.79280
O778        O  0.48159481  0.69872267  0.70118554    -0.79460
C779        C  0.50872419  0.68414584  0.68548180     1.01150
O780        O  0.55042938  0.69871950  0.79881776    -0.86790
O781        O  0.63461227  0.78290180  0.79881747    -0.83850
C782        C  0.64918719  0.82460873  0.81451982     0.96690
O783        O  0.63461064  0.85173986  0.79881678    -0.83880
O784        O  0.55042750  0.85174002  0.79881654    -0.86480
C785        C  0.50872411  0.82461026  0.81451934     1.01160
O786        O  0.48159532  0.78290612  0.79881575    -0.79300
O787        O  0.48159468  0.69872196  0.79881514    -0.79450
C788        C  0.50872430  0.68414559  0.81451937     1.01110
Cr789      Cr  0.58867393  0.74465720  0.75000071     1.93740
Cr790      Cr  0.58867210  0.84404580  0.75000080     1.93210
Cr791      Cr  0.48929005  0.74466189  0.75000066     1.39100
O792        O  0.55554555  0.77778830  0.75000072    -1.24540
O793        O  0.78288582  0.14828140  0.29881647    -0.86790
O794        O  0.69870230  0.14828078  0.29881678    -0.83840
C795        C  0.68412558  0.17541178  0.31451980     0.96670
O796        O  0.69870034  0.21711868  0.29881740    -0.83870
O797        O  0.78288283  0.30130137  0.29881768    -0.86510
C798        C  0.82458795  0.31587544  0.31451938     1.01200
O799        O  0.85171770  0.30129925  0.29881524    -0.79280
O800        O  0.85171783  0.21711548  0.29881587    -0.79460
C801        C  0.82458917  0.17541130  0.31451936     1.01150
O802        O  0.78288546  0.14828133  0.20118477    -0.86790
O803        O  0.69870189  0.14828059  0.20118504    -0.83850
C804        C  0.68412557  0.17541177  0.18548163     0.96690
O805        O  0.69870071  0.21711888  0.20118360    -0.83880
O806        O  0.78288315  0.30130165  0.20118384    -0.86480
C807        C  0.82458801  0.31587520  0.18548181     1.01160
O808        O  0.85171754  0.30129855  0.20118569    -0.79300
O809        O  0.85171794  0.21711492  0.20118628    -0.79450
C810        C  0.82458906  0.17541095  0.18548236     1.01130
Cr811      Cr  0.74464099  0.15597523  0.25000076     1.93740
Cr812      Cr  0.74463848  0.25536349  0.25000063     1.93210
Cr813      Cr  0.84402270  0.25535949  0.25000077     1.39100
O814        O  0.77776720  0.22223274  0.25000072    -1.24540
O815        O  0.88376229  0.03205249  0.03451731    -0.86790
O816        O  0.96794512  0.11623486  0.03451693    -0.83840
C817        C  0.98252051  0.15794205  0.01881498     0.96670
O818        O  0.96794441  0.18507338  0.03451845    -0.83870
O819        O  0.88376122  0.18507341  0.03451809    -0.86510
C820        C  0.84205756  0.15794395  0.01881568     1.01200
O821        O  0.81492852  0.11624005  0.03451957    -0.79280
O822        O  0.81492812  0.03205602  0.03451886    -0.79460
C823        C  0.84205749  0.01747916  0.01881513     1.01150
O824        O  0.88376271  0.03205285  0.13215112    -0.86790
O825        O  0.96794562  0.11623513  0.13215078    -0.83850
C826        C  0.98252051  0.15794205  0.14785315     0.96690
O827        O  0.96794394  0.18507317  0.13215014    -0.83880
O828        O  0.88376082  0.18507337  0.13214983    -0.86480
C829        C  0.84205745  0.15794360  0.14785267     1.01160
O830        O  0.81492867  0.11623944  0.13214912    -0.79300
O831        O  0.81492798  0.03205527  0.13214845    -0.79450
C832        C  0.84205761  0.01747892  0.14785271     1.01110
Cr833      Cr  0.92200725  0.07799052  0.08333404     1.93740
Cr834      Cr  0.92200544  0.17737912  0.08333412     1.93210
Cr835      Cr  0.82262338  0.07799522  0.08333400     1.39100
O836        O  0.88887888  0.11112162  0.08333405    -1.24540
O837        O  0.78288592  0.14828140  0.63214971    -0.86790
O838        O  0.69870243  0.14828084  0.63215022    -0.83840
C839        C  0.68412559  0.17541178  0.64785314     0.96670
O840        O  0.69870024  0.21711862  0.63215063    -0.83870
O841        O  0.78288276  0.30130128  0.63215112    -0.86510
C842        C  0.82458795  0.31587547  0.64785272     1.01200
O843        O  0.85171775  0.30129939  0.63214848    -0.79280
O844        O  0.85171781  0.21711559  0.63214933    -0.79460
C845        C  0.82458921  0.17541135  0.64785270     1.01150
O846        O  0.78288539  0.14828138  0.53451801    -0.86790
O847        O  0.69870179  0.14828059  0.53451849    -0.83850
C848        C  0.68412559  0.17541182  0.51881496     0.96690
O849        O  0.69870085  0.21711900  0.53451682    -0.83880
O850        O  0.78288327  0.30130178  0.53451727    -0.86480
C851        C  0.82458808  0.31587521  0.51881514     1.01160
O852        O  0.85171756  0.30129846  0.53451894    -0.79300
O853        O  0.85171799  0.21711485  0.53451974    -0.79450
C854        C  0.82458905  0.17541094  0.51881571     1.01130
Cr855      Cr  0.74464101  0.15597526  0.58333411     1.93740
Cr856      Cr  0.74463850  0.25536352  0.58333397     1.93210
Cr857      Cr  0.84402272  0.25535951  0.58333412     1.39100
O858        O  0.77776722  0.22223276  0.58333406    -1.24540
O859        O  0.88376229  0.03205249  0.36785068    -0.86790
O860        O  0.96794512  0.11623487  0.36785028    -0.83840
C861        C  0.98252050  0.15794206  0.35214832     0.96670
O862        O  0.96794440  0.18507339  0.36785178    -0.83870
O863        O  0.88376121  0.18507343  0.36785143    -0.86510
C864        C  0.84205755  0.15794396  0.35214902     1.01200
O865        O  0.81492851  0.11624007  0.36785292    -0.79280
O866        O  0.81492813  0.03205605  0.36785219    -0.79460
C867        C  0.84205749  0.01747918  0.35214848     1.01150
O868        O  0.88376272  0.03205288  0.46548449    -0.86790
O869        O  0.96794562  0.11623516  0.46548413    -0.83850
C870        C  0.98252052  0.15794208  0.48118649     0.96690
O871        O  0.96794394  0.18507320  0.46548348    -0.83880
O872        O  0.88376082  0.18507338  0.46548317    -0.86480
C873        C  0.84205745  0.15794361  0.48118602     1.01160
O874        O  0.81492867  0.11623945  0.46548246    -0.79300
O875        O  0.81492798  0.03205526  0.46548178    -0.79450
C876        C  0.84205761  0.01747893  0.48118605     1.01110
Cr877      Cr  0.92200725  0.07799054  0.41666739     1.93740
Cr878      Cr  0.92200544  0.17737914  0.41666746     1.93210
Cr879      Cr  0.82262338  0.07799524  0.41666734     1.39100
O880        O  0.88887888  0.11112164  0.41666740    -1.24540
O881        O  0.78288581  0.14828140  0.96548315    -0.86790
O882        O  0.69870227  0.14828076  0.96548342    -0.83840
C883        C  0.68412558  0.17541177  0.98118647     0.96670
O884        O  0.69870037  0.21711869  0.96548410    -0.83870
O885        O  0.78288286  0.30130137  0.96548435    -0.86510
C886        C  0.82458798  0.31587544  0.98118606     1.01200
O887        O  0.85171772  0.30129923  0.96548192    -0.79280
O888        O  0.85171784  0.21711545  0.96548251    -0.79460
C889        C  0.82458917  0.17541129  0.98118602     1.01150
O890        O  0.78288549  0.14828132  0.86785147    -0.86790
O891        O  0.69870192  0.14828059  0.86785169    -0.83850
C892        C  0.68412558  0.17541176  0.85214830     0.96690
O893        O  0.69870070  0.21711887  0.86785029    -0.83880
O894        O  0.78288314  0.30130164  0.86785051    -0.86480
C895        C  0.82458801  0.31587520  0.85214848     1.01160
O896        O  0.85171755  0.30129857  0.86785237    -0.79300
O897        O  0.85171793  0.21711493  0.86785292    -0.79450
C898        C  0.82458906  0.17541094  0.85214903     1.01130
Cr899      Cr  0.74464100  0.15597523  0.91666743     1.93740
Cr900      Cr  0.74463849  0.25536349  0.91666731     1.93210
Cr901      Cr  0.84402271  0.25535948  0.91666743     1.39100
O902        O  0.77776721  0.22223273  0.91666739    -1.24540
O903        O  0.88376226  0.03205242  0.70118406    -0.86790
O904        O  0.96794507  0.11623482  0.70118353    -0.83840
C905        C  0.98252052  0.15794205  0.68548164     0.96670
O906        O  0.96794450  0.18507342  0.70118518    -0.83870
O907        O  0.88376129  0.18507342  0.70118471    -0.86510
C908        C  0.84205759  0.15794399  0.68548236     1.01200
O909        O  0.81492852  0.11624013  0.70118630    -0.79280
O910        O  0.81492817  0.03205612  0.70118544    -0.79460
C911        C  0.84205750  0.01747918  0.68548180     1.01150
O912        O  0.88376280  0.03205295  0.79881785    -0.86790
O913        O  0.96794572  0.11623521  0.79881737    -0.83850
C914        C  0.98252053  0.15794209  0.81451982     0.96690
O915        O  0.96794389  0.18507318  0.79881688    -0.83880
O916        O  0.88376078  0.18507340  0.79881643    -0.86480
C917        C  0.84205745  0.15794359  0.81451934     1.01160
O918        O  0.81492871  0.11623939  0.79881585    -0.79300
O919        O  0.81492799  0.03205520  0.79881504    -0.79450
C920        C  0.84205766  0.01747893  0.81451937     1.01110
Cr921      Cr  0.92200727  0.07799054  0.75000070     1.93740
Cr922      Cr  0.92200546  0.17737914  0.75000080     1.93210
Cr923      Cr  0.82262340  0.07799524  0.75000066     1.39100
O924        O  0.88887890  0.11112164  0.75000072    -1.24540
O925        O  0.78288587  0.48161473  0.29881642    -0.86790
O926        O  0.69870235  0.48161413  0.29881681    -0.83840
C927        C  0.68412559  0.50874510  0.31451980     0.96670
O928        O  0.69870030  0.55045199  0.29881737    -0.83870
O929        O  0.78288279  0.63463468  0.29881769    -0.86510
C930        C  0.82458793  0.64920879  0.31451938     1.01200
O931        O  0.85171769  0.63463262  0.29881523    -0.79280
O932        O  0.85171783  0.55044885  0.29881592    -0.79460
C933        C  0.82458919  0.50874465  0.31451935     1.01150
O934        O  0.78288545  0.48161470  0.20118472    -0.86790
O935        O  0.69870185  0.48161391  0.20118508    -0.83850
C936        C  0.68412557  0.50874510  0.18548163     0.96690
O937        O  0.69870075  0.55045224  0.20118356    -0.83880
O938        O  0.78288318  0.63463501  0.20118385    -0.86480
C939        C  0.82458803  0.64920854  0.18548181     1.01160
O940        O  0.85171755  0.63463188  0.20118568    -0.79300
O941        O  0.85171797  0.55044824  0.20118634    -0.79450
C942        C  0.82458908  0.50874430  0.18548236     1.01130
Cr943      Cr  0.74464100  0.48930858  0.25000076     1.93740
Cr944      Cr  0.74463848  0.58869683  0.25000062     1.93210
Cr945      Cr  0.84402270  0.58869283  0.25000079     1.39100
O946        O  0.77776721  0.55556608  0.25000072    -1.24540
O947        O  0.88376241  0.36538595  0.03451722    -0.86790
O948        O  0.96794527  0.44956829  0.03451707    -0.83840
C949        C  0.98252052  0.49127541  0.01881499     0.96670
O950        O  0.96794429  0.51840669  0.03451834    -0.83870
O951        O  0.88376114  0.51840679  0.03451822    -0.86510
C952        C  0.84205755  0.49127727  0.01881569     1.01200
O953        O  0.81492857  0.44957330  0.03451945    -0.79280
O954        O  0.81492811  0.36538923  0.03451897    -0.79460
C955        C  0.84205754  0.35081250  0.01881514     1.01150
O956        O  0.88376262  0.36538607  0.13215102    -0.86790
O957        O  0.96794550  0.44956837  0.13215091    -0.83850
C958        C  0.98252052  0.49127536  0.14785316     0.96690
O959        O  0.96794408  0.51840654  0.13215004    -0.83880
O960        O  0.88376093  0.51840668  0.13214996    -0.86480
C961        C  0.84205749  0.49127697  0.14785267     1.01160
O962        O  0.81492865  0.44957289  0.13214900    -0.79300
O963        O  0.81492802  0.36538873  0.13214856    -0.79450
C964        C  0.84205758  0.35081226  0.14785271     1.01110
Cr965      Cr  0.92200726  0.41132386  0.08333405     1.93740
Cr966      Cr  0.92200545  0.51071247  0.08333413     1.93210
Cr967      Cr  0.82262339  0.41132857  0.08333400     1.39100
O968        O  0.88887889  0.44445496  0.08333406    -1.24540
O969        O  0.78288580  0.48161473  0.63214981    -0.86790
O970        O  0.69870229  0.48161414  0.63215011    -0.83840
C971        C  0.68412559  0.50874515  0.64785314     0.96670
O972        O  0.69870037  0.55045206  0.63215074    -0.83870
O973        O  0.78288287  0.63463474  0.63215098    -0.86510
C974        C  0.82458798  0.64920879  0.64785271     1.01200
O975        O  0.85171771  0.63463257  0.63214859    -0.79280
O976        O  0.85171783  0.55044879  0.63214920    -0.79460
C977        C  0.82458916  0.50874462  0.64785269     1.01150
O978        O  0.78288547  0.48161466  0.53451812    -0.86790
O979        O  0.69870191  0.48161394  0.53451836    -0.83850
C980        C  0.68412558  0.50874511  0.51881496     0.96690
O981        O  0.69870071  0.55045222  0.53451694    -0.83880
O982        O  0.78288317  0.63463496  0.53451713    -0.86480
C983        C  0.82458805  0.64920853  0.51881513     1.01160
O984        O  0.85171759  0.63463192  0.53451905    -0.79300
O985        O  0.85171793  0.55044825  0.53451960    -0.79450
C986        C  0.82458906  0.50874428  0.51881570     1.01130
Cr987      Cr  0.74464099  0.48930857  0.58333410     1.93740
Cr988      Cr  0.74463850  0.58869684  0.58333395     1.93210
Cr989      Cr  0.84402271  0.58869282  0.58333411     1.39100
O990        O  0.77776721  0.55556608  0.58333405    -1.24540
O991        O  0.88376226  0.36538575  0.36785072    -0.86790
O992        O  0.96794506  0.44956815  0.36785019    -0.83840
C993        C  0.98252052  0.49127538  0.35214831     0.96670
O994        O  0.96794450  0.51840675  0.36785185    -0.83870
O995        O  0.88376128  0.51840673  0.36785135    -0.86510
C996        C  0.84205758  0.49127730  0.35214901     1.01200
O997        O  0.81492850  0.44957345  0.36785297    -0.79280
O998        O  0.81492816  0.36538944  0.36785212    -0.79460
C999        C  0.84205749  0.35081250  0.35214846     1.01150
O1000       O  0.88376279  0.36538627  0.46548452    -0.86790
O1001       O  0.96794571  0.44956854  0.46548404    -0.83850
C1002       C  0.98252052  0.49127541  0.48118649     0.96690
O1003       O  0.96794386  0.51840650  0.46548355    -0.83880
O1004       O  0.88376077  0.51840673  0.46548309    -0.86480
C1005       C  0.84205744  0.49127692  0.48118600     1.01160
O1006       O  0.81492870  0.44957272  0.46548252    -0.79300
O1007       O  0.81492799  0.36538853  0.46548171    -0.79450
C1008       C  0.84205766  0.35081226  0.48118604     1.01110
Cr1009     Cr  0.92200727  0.41132386  0.41666737     1.93740
Cr1010     Cr  0.92200545  0.51071247  0.41666746     1.93210
Cr1011     Cr  0.82262339  0.41132856  0.41666733     1.39100
O1012       O  0.88887889  0.44445497  0.41666738    -1.24540
O1013       O  0.78288586  0.48161472  0.96548310    -0.86790
O1014       O  0.69870235  0.48161415  0.96548350    -0.83840
C1015       C  0.68412559  0.50874513  0.98118648     0.96670
O1016       O  0.69870032  0.55045201  0.96548403    -0.83870
O1017       O  0.78288283  0.63463470  0.96548436    -0.86510
C1018       C  0.82458796  0.64920879  0.98118606     1.01200
O1019       O  0.85171772  0.63463262  0.96548191    -0.79280
O1020       O  0.85171783  0.55044884  0.96548260    -0.79460
C1021       C  0.82458918  0.50874463  0.98118603     1.01150
O1022       O  0.78288546  0.48161471  0.86785141    -0.86790
O1023       O  0.69870186  0.48161391  0.86785176    -0.83850
C1024       C  0.68412558  0.50874510  0.85214830     0.96690
O1025       O  0.69870076  0.55045225  0.86785022    -0.83880
O1026       O  0.78288320  0.63463501  0.86785051    -0.86480
C1027       C  0.82458806  0.64920854  0.85214848     1.01160
O1028       O  0.85171758  0.63463189  0.86785236    -0.79300
O1029       O  0.85171798  0.55044825  0.86785301    -0.79450
C1030       C  0.82458908  0.50874431  0.85214904     1.01130
Cr1031     Cr  0.74464101  0.48930858  0.91666744     1.93740
Cr1032     Cr  0.74463850  0.58869684  0.91666729     1.93210
Cr1033     Cr  0.84402272  0.58869284  0.91666747     1.39100
O1034       O  0.77776722  0.55556608  0.91666740    -1.24540
O1035       O  0.88376236  0.36538594  0.70118391    -0.86790
O1036       O  0.96794522  0.44956829  0.70118369    -0.83840
C1037       C  0.98252051  0.49127543  0.68548166     0.96670
O1038       O  0.96794432  0.51840672  0.70118504    -0.83870
O1039       O  0.88376115  0.51840678  0.70118484    -0.86510
C1040       C  0.84205753  0.49127727  0.68548236     1.01200
O1041       O  0.81492853  0.44957334  0.70118618    -0.79280
O1042       O  0.81492810  0.36538929  0.70118561    -0.79460
C1043       C  0.84205751  0.35081252  0.68548181     1.01150
O1044       O  0.88376264  0.36538612  0.79881772    -0.86790
O1045       O  0.96794552  0.44956842  0.79881755    -0.83850
C1046       C  0.98252051  0.49127540  0.81451983     0.96690
O1047       O  0.96794404  0.51840657  0.79881673    -0.83880
O1048       O  0.88376089  0.51840671  0.79881657    -0.86480
C1049       C  0.84205748  0.49127698  0.81451935     1.01160
O1050       O  0.81492866  0.44957286  0.79881572    -0.79300
O1051       O  0.81492800  0.36538870  0.79881520    -0.79450
C1052       C  0.84205759  0.35081227  0.81451939     1.01110
Cr1053     Cr  0.92200725  0.41132388  0.75000072     1.93740
Cr1054     Cr  0.92200544  0.51071248  0.75000079     1.93210
Cr1055     Cr  0.82262338  0.41132858  0.75000068     1.39100
O1056       O  0.88887888  0.44445498  0.75000073    -1.24540
O1057       O  0.78288589  0.81494808  0.29881643    -0.86790
O1058       O  0.69870236  0.81494747  0.29881684    -0.83840
C1059       C  0.68412558  0.84207843  0.31451981     0.96670
O1060       O  0.69870028  0.88378530  0.29881736    -0.83870
O1061       O  0.78288278  0.96796798  0.29881775    -0.86510
C1062       C  0.82458794  0.98254213  0.31451939     1.01200
O1063       O  0.85171772  0.96796600  0.29881520    -0.79280
O1064       O  0.85171783  0.88378222  0.29881594    -0.79460
C1065       C  0.82458920  0.84207801  0.31451937     1.01150
O1066       O  0.78288544  0.81494803  0.20118473    -0.86790
O1067       O  0.69870184  0.81494725  0.20118511    -0.83850
C1068       C  0.68412558  0.84207846  0.18548163     0.96690
O1069       O  0.69870078  0.88378561  0.20118355    -0.83880
O1070       O  0.78288321  0.96796839  0.20118390    -0.86480
C1071       C  0.82458804  0.98254187  0.18548181     1.01160
O1072       O  0.85171754  0.96796517  0.20118565    -0.79300
O1073       O  0.85171797  0.88378156  0.20118636    -0.79450
C1074       C  0.82458907  0.84207763  0.18548238     1.01130
Cr1075     Cr  0.74464101  0.82264192  0.25000077     1.93740
Cr1076     Cr  0.74463849  0.92203017  0.25000064     1.93210
Cr1077     Cr  0.84402271  0.92202617  0.25000078     1.39100
O1078       O  0.77776721  0.88889942  0.25000073    -1.24540
O1079       O  0.88376232  0.69871918  0.03451733    -0.86790
O1080       O  0.96794516  0.78290155  0.03451697    -0.83840
C1081       C  0.98252051  0.82460873  0.01881499     0.96670
O1082       O  0.96794439  0.85174005  0.03451843    -0.83870
O1083       O  0.88376122  0.85174011  0.03451812    -0.86510
C1084       C  0.84205757  0.82461064  0.01881569     1.01200
O1085       O  0.81492854  0.78290673  0.03451956    -0.79280
O1086       O  0.81492814  0.69872270  0.03451887    -0.79460
C1087       C  0.84205751  0.68414585  0.01881514     1.01150
O1088       O  0.88376271  0.69871953  0.13215113    -0.86790
O1089       O  0.96794561  0.78290181  0.13215082    -0.83850
C1090       C  0.98252052  0.82460874  0.14785317     0.96690
O1091       O  0.96794398  0.85173987  0.13215013    -0.83880
O1092       O  0.88376085  0.85174005  0.13214986    -0.86480
C1093       C  0.84205747  0.82461029  0.14785268     1.01160
O1094       O  0.81492868  0.78290614  0.13214911    -0.79300
O1095       O  0.81492799  0.69872196  0.13214846    -0.79450
C1096       C  0.84205761  0.68414560  0.14785272     1.01110
Cr1097     Cr  0.92200726  0.74465720  0.08333406     1.93740
Cr1098     Cr  0.92200545  0.84404581  0.08333413     1.93210
Cr1099     Cr  0.82262339  0.74466191  0.08333400     1.39100
O1100       O  0.88887889  0.77778831  0.08333407    -1.24540
O1101       O  0.78288576  0.81494808  0.63214986    -0.86790
O1102       O  0.69870223  0.81494745  0.63215006    -0.83840
C1103       C  0.68412558  0.84207847  0.64785313     0.96670
O1104       O  0.69870040  0.88378541  0.63215078    -0.83870
O1105       O  0.78288288  0.96796811  0.63215095    -0.86510
C1106       C  0.82458797  0.98254212  0.64785271     1.01200
O1107       O  0.85171768  0.96796585  0.63214864    -0.79280
O1108       O  0.85171783  0.88378209  0.63214916    -0.79460
C1109       C  0.82458914  0.84207794  0.64785269     1.01150
O1110       O  0.78288550  0.81494798  0.53451817    -0.86790
O1111       O  0.69870195  0.81494728  0.53451832    -0.83850
C1112       C  0.68412557  0.84207843  0.51881496     0.96690
O1113       O  0.69870065  0.88378551  0.53451698    -0.83880
O1114       O  0.78288312  0.96796825  0.53451711    -0.86480
C1115       C  0.82458802  0.98254187  0.51881514     1.01160
O1116       O  0.85171758  0.96796529  0.53451909    -0.79300
O1117       O  0.85171792  0.88378163  0.53451956    -0.79450
C1118       C  0.82458906  0.84207762  0.51881571     1.01130
Cr1119     Cr  0.74464099  0.82264190  0.58333410     1.93740
Cr1120     Cr  0.74463849  0.92203017  0.58333396     1.93210
Cr1121     Cr  0.84402270  0.92202615  0.58333411     1.39100
O1122       O  0.77776720  0.88889941  0.58333406    -1.24540
O1123       O  0.88376221  0.69871906  0.36785075    -0.86790
O1124       O  0.96794502  0.78290146  0.36785017    -0.83840
C1125       C  0.98252051  0.82460871  0.35214831     0.96670
O1126       O  0.96794453  0.85174009  0.36785188    -0.83870
O1127       O  0.88376131  0.85174008  0.36785134    -0.86510
C1128       C  0.84205759  0.82461067  0.35214903     1.01200
O1129       O  0.81492850  0.78290683  0.36785301    -0.79280
O1130       O  0.81492816  0.69872282  0.36785208    -0.79460
C1131       C  0.84205747  0.68414585  0.35214846     1.01150
O1132       O  0.88376280  0.69871964  0.46548456    -0.86790
O1133       O  0.96794574  0.78290189  0.46548401    -0.83850
C1134       C  0.98252052  0.82460875  0.48118649     0.96690
O1135       O  0.96794384  0.85173983  0.46548358    -0.83880
O1136       O  0.88376075  0.85174008  0.46548307    -0.86480
C1137       C  0.84205745  0.82461026  0.48118601     1.01160
O1138       O  0.81492872  0.78290604  0.46548256    -0.79300
O1139       O  0.81492796  0.69872183  0.46548167    -0.79450
C1140       C  0.84205764  0.68414559  0.48118604     1.01110
Cr1141     Cr  0.92200726  0.74465720  0.41666737     1.93740
Cr1142     Cr  0.92200545  0.84404581  0.41666746     1.93210
Cr1143     Cr  0.82262339  0.74466191  0.41666734     1.39100
O1144       O  0.88887889  0.77778831  0.41666739    -1.24540
O1145       O  0.78288591  0.81494805  0.96548305    -0.86790
O1146       O  0.69870241  0.81494749  0.96548354    -0.83840
C1147       C  0.68412560  0.84207845  0.98118647     0.96670
O1148       O  0.69870025  0.88378529  0.96548396    -0.83870
O1149       O  0.78288278  0.96796796  0.96548441    -0.86510
C1150       C  0.82458794  0.98254211  0.98118604     1.01200
O1151       O  0.85171773  0.96796600  0.96548183    -0.79280
O1152       O  0.85171782  0.88378221  0.96548263    -0.79460
C1153       C  0.82458920  0.84207799  0.98118602     1.01150
O1154       O  0.78288540  0.81494802  0.86785135    -0.86790
O1155       O  0.69870179  0.81494723  0.86785180    -0.83850
C1156       C  0.68412558  0.84207845  0.85214829     0.96690
O1157       O  0.69870083  0.88378563  0.86785016    -0.83880
O1158       O  0.78288326  0.96796840  0.86785056    -0.86480
C1159       C  0.82458808  0.98254187  0.85214846     1.01160
O1160       O  0.85171757  0.96796515  0.86785228    -0.79300
O1161       O  0.85171797  0.88378151  0.86785304    -0.79450
C1162       C  0.82458905  0.84207759  0.85214903     1.01130
Cr1163     Cr  0.74464100  0.82264191  0.91666743     1.93740
Cr1164     Cr  0.74463850  0.92203017  0.91666728     1.93210
Cr1165     Cr  0.84402272  0.92202616  0.91666744     1.39100
O1166       O  0.77776722  0.88889941  0.91666738    -1.24540
O1167       O  0.88376233  0.69871917  0.70118399    -0.86790
O1168       O  0.96794515  0.78290156  0.70118361    -0.83840
C1169       C  0.98252051  0.82460874  0.68548164     0.96670
O1170       O  0.96794439  0.85174006  0.70118509    -0.83870
O1171       O  0.88376119  0.85174007  0.70118476    -0.86510
C1172       C  0.84205753  0.82461060  0.68548235     1.01200
O1173       O  0.81492850  0.78290671  0.70118624    -0.79280
O1174       O  0.81492815  0.69872269  0.70118551    -0.79460
C1175       C  0.84205752  0.68414584  0.68548179     1.01150
O1176       O  0.88376273  0.69871953  0.79881779    -0.86790
O1177       O  0.96794561  0.78290182  0.79881747    -0.83850
C1178       C  0.98252051  0.82460875  0.81451982     0.96690
O1179       O  0.96794396  0.85173988  0.79881678    -0.83880
O1180       O  0.88376082  0.85174003  0.79881650    -0.86480
C1181       C  0.84205745  0.82461026  0.81451934     1.01160
O1182       O  0.81492867  0.78290610  0.79881578    -0.79300
O1183       O  0.81492800  0.69872193  0.79881511    -0.79450
C1184       C  0.84205763  0.68414559  0.81451938     1.01110
Cr1185     Cr  0.92200726  0.74465721  0.75000071     1.93740
Cr1186     Cr  0.92200543  0.84404580  0.75000078     1.93210
Cr1187     Cr  0.82262338  0.74466189  0.75000066     1.39100
O1188       O  0.88887888  0.77778830  0.75000072    -1.24540
loop_ 
_geom_bond_atom_site_label_1 
_geom_bond_atom_site_label_2 
_geom_bond_distance 
_geom_bond_site_symmetry_2 
_ccdc_geom_bond_type 
O1          Cr19   1.977       .  S
O1            C9   1.256       .  A
O2          Cr19   1.977       .  S
O2            C3   1.256       .  A
C3            O4   1.256       .  A
C3          C861   1.468   1_455  S
O4          Cr20   1.977       .  S
O5          Cr20   1.977       .  S
O5            C6   1.256       .  A
C6            O7   1.256       .  A
C6          C207   1.468       .  S
O7          Cr21   1.977       .  S
O8          Cr21   1.977       .  S
O8            C9   1.256       .  A
C9           C72   1.468       .  S
O10         Cr19   1.977       .  S
O10          C18   1.256       .  A
O11         Cr19   1.977       .  S
O11          C12   1.256       .  A
C12          O13   1.256       .  A
C12         C826   1.468   1_455  S
O13         Cr20   1.977       .  S
O14         Cr20   1.977       .  S
O14          C15   1.256       .  A
C15          O16   1.256       .  A
C15         C172   1.468       .  S
O16         Cr21   1.977       .  S
O17         Cr21   1.977       .  S
O17          C18   1.256       .  A
C18          C37   1.468       .  S
Cr19         O22   1.827       .  S
Cr20         O22   1.827       .  S
Cr21         O22   1.827       .  S
O23         Cr41   1.977       .  S
O23          C31   1.256       .  A
O24         Cr41   1.977       .  S
O24          C25   1.256       .  A
C25          O26   1.256       .  A
C25         C487   1.468   1_554  S
O26         Cr42   1.977       .  S
O27         Cr42   1.977       .  S
O27          C28   1.256       .  A
C28          O29   1.256       .  A
C28          C97   1.468   1_554  S
O29         Cr43   1.977       .  S
O30         Cr43   1.977       .  S
O30          C31   1.256       .  A
C31         C358   1.468   1_544  S
O32         Cr41   1.977       .  S
O32          C40   1.256       .  A
O33         Cr41   1.977       .  S
O33          C34   1.256       .  A
C34          O35   1.256       .  A
C34         C408   1.468       .  S
O35         Cr42   1.977       .  S
O36         Cr42   1.977       .  S
O36          C37   1.256       .  A
C37          O38   1.256       .  A
O38         Cr43   1.977       .  S
O39         Cr43   1.977       .  S
O39          C40   1.256       .  A
C40         C279   1.468   1_545  S
Cr41         O44   1.827       .  S
Cr42         O44   1.827       .  S
Cr43         O44   1.827       .  S
O45         Cr63   1.977       .  S
O45          C53   1.256       .  A
O46         Cr63   1.977       .  S
O46          C47   1.256       .  A
C47          O48   1.256       .  A
C47         C905   1.468   1_455  S
O48         Cr64   1.977       .  S
O49         Cr64   1.977       .  S
O49          C50   1.256       .  A
C50          O51   1.256       .  A
C50         C251   1.468       .  S
O51         Cr65   1.977       .  S
O52         Cr65   1.977       .  S
O52          C53   1.256       .  A
C53         C116   1.468       .  S
O54         Cr63   1.977       .  S
O54          C62   1.256       .  A
O55         Cr63   1.977       .  S
O55          C56   1.256       .  A
C56          O57   1.256       .  A
C56         C870   1.468   1_455  S
O57         Cr64   1.977       .  S
O58         Cr64   1.977       .  S
O58          C59   1.256       .  A
C59          O60   1.256       .  A
C59         C216   1.468       .  S
O60         Cr65   1.977       .  S
O61         Cr65   1.977       .  S
O61          C62   1.256       .  A
C62          C81   1.468       .  S
Cr63         O66   1.827       .  S
Cr64         O66   1.827       .  S
Cr65         O66   1.827       .  S
O67         Cr85   1.977       .  S
O67          C75   1.256       .  A
O68         Cr85   1.977       .  S
O68          C69   1.256       .  A
C69          O70   1.256       .  A
C69         C399   1.468       .  S
O70         Cr86   1.977       .  S
O71         Cr86   1.977       .  S
O71          C72   1.256       .  A
C72          O73   1.256       .  A
O73         Cr87   1.977       .  S
O74         Cr87   1.977       .  S
O74          C75   1.256       .  A
C75         C270   1.468   1_545  S
O76         Cr85   1.977       .  S
O76          C84   1.256       .  A
O77         Cr85   1.977       .  S
O77          C78   1.256       .  A
C78          O79   1.256       .  A
C78         C452   1.468       .  S
O79         Cr86   1.977       .  S
O80         Cr86   1.977       .  S
O80          C81   1.256       .  A
C81          O82   1.256       .  A
O82         Cr87   1.977       .  S
O83         Cr87   1.977       .  S
O83          C84   1.256       .  A
C84         C323   1.468   1_545  S
Cr85         O88   1.827       .  S
Cr86         O88   1.827       .  S
Cr87         O88   1.827       .  S
O89        Cr107   1.977       .  S
O89          C97   1.256       .  A
O90        Cr107   1.977       .  S
O90          C91   1.256       .  A
C91          O92   1.256       .  A
C91         C817   1.468   1_456  S
O92        Cr108   1.977       .  S
O93        Cr108   1.977       .  S
O93          C94   1.256       .  A
C94          O95   1.256       .  A
C94         C163   1.468   1_556  S
O95        Cr109   1.977       .  S
O96        Cr109   1.977       .  S
O96          C97   1.256       .  A
O98        Cr107   1.977       .  S
O98         C106   1.256       .  A
O99        Cr107   1.977       .  S
O99         C100   1.256       .  A
C100        O101   1.256       .  A
C100        C914   1.468   1_455  S
O101       Cr108   1.977       .  S
O102       Cr108   1.977       .  S
O102        C103   1.256       .  A
C103        O104   1.256       .  A
C103        C260   1.468       .  S
O104       Cr109   1.977       .  S
O105       Cr109   1.977       .  S
O105        C106   1.256       .  A
C106        C125   1.468       .  S
Cr107       O110   1.827       .  S
Cr108       O110   1.827       .  S
Cr109       O110   1.827       .  S
O111       Cr129   1.977       .  S
O111        C119   1.256       .  A
O112       Cr129   1.977       .  S
O112        C113   1.256       .  A
C113        O114   1.256       .  A
C113        C443   1.468       .  S
O114       Cr130   1.977       .  S
O115       Cr130   1.977       .  S
O115        C116   1.256       .  A
C116        O117   1.256       .  A
O117       Cr131   1.977       .  S
O118       Cr131   1.977       .  S
O118        C119   1.256       .  A
C119        C314   1.468   1_545  S
O120       Cr129   1.977       .  S
O120        C128   1.256       .  A
O121       Cr129   1.977       .  S
O121        C122   1.256       .  A
C122        O123   1.256       .  A
C122        C496   1.468       .  S
O123       Cr130   1.977       .  S
O124       Cr130   1.977       .  S
O124        C125   1.256       .  A
C125        O126   1.256       .  A
O126       Cr131   1.977       .  S
O127       Cr131   1.977       .  S
O127        C128   1.256       .  A
C128        C367   1.468   1_545  S
Cr129       O132   1.827       .  S
Cr130       O132   1.827       .  S
Cr131       O132   1.827       .  S
O133       Cr151   1.977       .  S
O133        C141   1.256       .  A
O134       Cr151   1.977       .  S
O134        C135   1.256       .  A
C135        O136   1.256       .  A
C135        C993   1.468   1_455  S
O136       Cr152   1.977       .  S
O137       Cr152   1.977       .  S
O137        C138   1.256       .  A
C138        O139   1.256       .  A
C138        C339   1.468       .  S
O139       Cr153   1.977       .  S
O140       Cr153   1.977       .  S
O140        C141   1.256       .  A
C141        C204   1.468       .  S
O142       Cr151   1.977       .  S
O142        C150   1.256       .  A
O143       Cr151   1.977       .  S
O143        C144   1.256       .  A
C144        O145   1.256       .  A
C144        C958   1.468   1_455  S
O145       Cr152   1.977       .  S
O146       Cr152   1.977       .  S
O146        C147   1.256       .  A
C147        O148   1.256       .  A
C147        C304   1.468       .  S
O148       Cr153   1.977       .  S
O149       Cr153   1.977       .  S
O149        C150   1.256       .  A
C150        C169   1.468       .  S
Cr151       O154   1.827       .  S
Cr152       O154   1.827       .  S
Cr153       O154   1.827       .  S
O155       Cr173   1.977       .  S
O155        C163   1.256       .  A
O156       Cr173   1.977       .  S
O156        C157   1.256       .  A
C157        O158   1.256       .  A
C157        C619   1.468   1_554  S
O158       Cr174   1.977       .  S
O159       Cr174   1.977       .  S
O159        C160   1.256       .  A
C160        O161   1.256       .  A
C160        C229   1.468   1_554  S
O161       Cr175   1.977       .  S
O162       Cr175   1.977       .  S
O162        C163   1.256       .  A
O164       Cr173   1.977       .  S
O164        C172   1.256       .  A
O165       Cr173   1.977       .  S
O165        C166   1.256       .  A
C166        O167   1.256       .  A
C166        C540   1.468       .  S
O167       Cr174   1.977       .  S
O168       Cr174   1.977       .  S
O168        C169   1.256       .  A
C169        O170   1.256       .  A
O170       Cr175   1.977       .  S
O171       Cr175   1.977       .  S
O171        C172   1.256       .  A
Cr173       O176   1.827       .  S
Cr174       O176   1.827       .  S
Cr175       O176   1.827       .  S
O177       Cr195   1.977       .  S
O177        C185   1.256       .  A
O178       Cr195   1.977       .  S
O178        C179   1.256       .  A
C179        O180   1.256       .  A
C179       C1037   1.468   1_455  S
O180       Cr196   1.977       .  S
O181       Cr196   1.977       .  S
O181        C182   1.256       .  A
C182        O183   1.256       .  A
C182        C383   1.468       .  S
O183       Cr197   1.977       .  S
O184       Cr197   1.977       .  S
O184        C185   1.256       .  A
C185        C248   1.468       .  S
O186       Cr195   1.977       .  S
O186        C194   1.256       .  A
O187       Cr195   1.977       .  S
O187        C188   1.256       .  A
C188        O189   1.256       .  A
C188       C1002   1.468   1_455  S
O189       Cr196   1.977       .  S
O190       Cr196   1.977       .  S
O190        C191   1.256       .  A
C191        O192   1.256       .  A
C191        C348   1.468       .  S
O192       Cr197   1.977       .  S
O193       Cr197   1.977       .  S
O193        C194   1.256       .  A
C194        C213   1.468       .  S
Cr195       O198   1.827       .  S
Cr196       O198   1.827       .  S
Cr197       O198   1.827       .  S
O199       Cr217   1.977       .  S
O199        C207   1.256       .  A
O200       Cr217   1.977       .  S
O200        C201   1.256       .  A
C201        O202   1.256       .  A
C201        C531   1.468       .  S
O202       Cr218   1.977       .  S
O203       Cr218   1.977       .  S
O203        C204   1.256       .  A
C204        O205   1.256       .  A
O205       Cr219   1.977       .  S
O206       Cr219   1.977       .  S
O206        C207   1.256       .  A
O208       Cr217   1.977       .  S
O208        C216   1.256       .  A
O209       Cr217   1.977       .  S
O209        C210   1.256       .  A
C210        O211   1.256       .  A
C210        C584   1.468       .  S
O211       Cr218   1.977       .  S
O212       Cr218   1.977       .  S
O212        C213   1.256       .  A
C213        O214   1.256       .  A
O214       Cr219   1.977       .  S
O215       Cr219   1.977       .  S
O215        C216   1.256       .  A
Cr217       O220   1.827       .  S
Cr218       O220   1.827       .  S
Cr219       O220   1.827       .  S
O221       Cr239   1.977       .  S
O221        C229   1.256       .  A
O222       Cr239   1.977       .  S
O222        C223   1.256       .  A
C223        O224   1.256       .  A
C223        C949   1.468   1_456  S
O224       Cr240   1.977       .  S
O225       Cr240   1.977       .  S
O225        C226   1.256       .  A
C226        O227   1.256       .  A
C226        C295   1.468   1_556  S
O227       Cr241   1.977       .  S
O228       Cr241   1.977       .  S
O228        C229   1.256       .  A
O230       Cr239   1.977       .  S
O230        C238   1.256       .  A
O231       Cr239   1.977       .  S
O231        C232   1.256       .  A
C232        O233   1.256       .  A
C232       C1046   1.468   1_455  S
O233       Cr240   1.977       .  S
O234       Cr240   1.977       .  S
O234        C235   1.256       .  A
C235        O236   1.256       .  A
C235        C392   1.468       .  S
O236       Cr241   1.977       .  S
O237       Cr241   1.977       .  S
O237        C238   1.256       .  A
C238        C257   1.468       .  S
Cr239       O242   1.827       .  S
Cr240       O242   1.827       .  S
Cr241       O242   1.827       .  S
O243       Cr261   1.977       .  S
O243        C251   1.256       .  A
O244       Cr261   1.977       .  S
O244        C245   1.256       .  A
C245        O246   1.256       .  A
C245        C575   1.468       .  S
O246       Cr262   1.977       .  S
O247       Cr262   1.977       .  S
O247        C248   1.256       .  A
C248        O249   1.256       .  A
O249       Cr263   1.977       .  S
O250       Cr263   1.977       .  S
O250        C251   1.256       .  A
O252       Cr261   1.977       .  S
O252        C260   1.256       .  A
O253       Cr261   1.977       .  S
O253        C254   1.256       .  A
C254        O255   1.256       .  A
C254        C628   1.468       .  S
O255       Cr262   1.977       .  S
O256       Cr262   1.977       .  S
O256        C257   1.256       .  A
C257        O258   1.256       .  A
O258       Cr263   1.977       .  S
O259       Cr263   1.977       .  S
O259        C260   1.256       .  A
Cr261       O264   1.827       .  S
Cr262       O264   1.827       .  S
Cr263       O264   1.827       .  S
O265       Cr283   1.977       .  S
O265        C273   1.256       .  A
O266       Cr283   1.977       .  S
O266        C267   1.256       .  A
C267        O268   1.256       .  A
C267       C1125   1.468   1_455  S
O268       Cr284   1.977       .  S
O269       Cr284   1.977       .  S
O269        C270   1.256       .  A
C270        O271   1.256       .  A
O271       Cr285   1.977       .  S
O272       Cr285   1.977       .  S
O272        C273   1.256       .  A
C273        C336   1.468       .  S
O274       Cr283   1.977       .  S
O274        C282   1.256       .  A
O275       Cr283   1.977       .  S
O275        C276   1.256       .  A
C276        O277   1.256       .  A
C276       C1090   1.468   1_455  S
O277       Cr284   1.977       .  S
O278       Cr284   1.977       .  S
O278        C279   1.256       .  A
C279        O280   1.256       .  A
O280       Cr285   1.977       .  S
O281       Cr285   1.977       .  S
O281        C282   1.256       .  A
C282        C301   1.468       .  S
Cr283       O286   1.827       .  S
Cr284       O286   1.827       .  S
Cr285       O286   1.827       .  S
O287       Cr305   1.977       .  S
O287        C295   1.256       .  A
O288       Cr305   1.977       .  S
O288        C289   1.256       .  A
C289        O290   1.256       .  A
C289        C751   1.468   1_554  S
O290       Cr306   1.977       .  S
O291       Cr306   1.977       .  S
O291        C292   1.256       .  A
C292        O293   1.256       .  A
C292        C361   1.468   1_554  S
O293       Cr307   1.977       .  S
O294       Cr307   1.977       .  S
O294        C295   1.256       .  A
O296       Cr305   1.977       .  S
O296        C304   1.256       .  A
O297       Cr305   1.977       .  S
O297        C298   1.256       .  A
C298        O299   1.256       .  A
C298        C672   1.468       .  S
O299       Cr306   1.977       .  S
O300       Cr306   1.977       .  S
O300        C301   1.256       .  A
C301        O302   1.256       .  A
O302       Cr307   1.977       .  S
O303       Cr307   1.977       .  S
O303        C304   1.256       .  A
Cr305       O308   1.827       .  S
Cr306       O308   1.827       .  S
Cr307       O308   1.827       .  S
O309       Cr327   1.977       .  S
O309        C317   1.256       .  A
O310       Cr327   1.977       .  S
O310        C311   1.256       .  A
C311        O312   1.256       .  A
C311       C1169   1.468   1_455  S
O312       Cr328   1.977       .  S
O313       Cr328   1.977       .  S
O313        C314   1.256       .  A
C314        O315   1.256       .  A
O315       Cr329   1.977       .  S
O316       Cr329   1.977       .  S
O316        C317   1.256       .  A
C317        C380   1.468       .  S
O318       Cr327   1.977       .  S
O318        C326   1.256       .  A
O319       Cr327   1.977       .  S
O319        C320   1.256       .  A
C320        O321   1.256       .  A
C320       C1134   1.468   1_455  S
O321       Cr328   1.977       .  S
O322       Cr328   1.977       .  S
O322        C323   1.256       .  A
C323        O324   1.256       .  A
O324       Cr329   1.977       .  S
O325       Cr329   1.977       .  S
O325        C326   1.256       .  A
C326        C345   1.468       .  S
Cr327       O330   1.827       .  S
Cr328       O330   1.827       .  S
Cr329       O330   1.827       .  S
O331       Cr349   1.977       .  S
O331        C339   1.256       .  A
O332       Cr349   1.977       .  S
O332        C333   1.256       .  A
C333        O334   1.256       .  A
C333        C663   1.468       .  S
O334       Cr350   1.977       .  S
O335       Cr350   1.977       .  S
O335        C336   1.256       .  A
C336        O337   1.256       .  A
O337       Cr351   1.977       .  S
O338       Cr351   1.977       .  S
O338        C339   1.256       .  A
O340       Cr349   1.977       .  S
O340        C348   1.256       .  A
O341       Cr349   1.977       .  S
O341        C342   1.256       .  A
C342        O343   1.256       .  A
C342        C716   1.468       .  S
O343       Cr350   1.977       .  S
O344       Cr350   1.977       .  S
O344        C345   1.256       .  A
C345        O346   1.256       .  A
O346       Cr351   1.977       .  S
O347       Cr351   1.977       .  S
O347        C348   1.256       .  A
Cr349       O352   1.827       .  S
Cr350       O352   1.827       .  S
Cr351       O352   1.827       .  S
O353       Cr371   1.977       .  S
O353        C361   1.256       .  A
O354       Cr371   1.977       .  S
O354        C355   1.256       .  A
C355        O356   1.256       .  A
C355       C1081   1.468   1_456  S
O356       Cr372   1.977       .  S
O357       Cr372   1.977       .  S
O357        C358   1.256       .  A
C358        O359   1.256       .  A
O359       Cr373   1.977       .  S
O360       Cr373   1.977       .  S
O360        C361   1.256       .  A
O362       Cr371   1.977       .  S
O362        C370   1.256       .  A
O363       Cr371   1.977       .  S
O363        C364   1.256       .  A
C364        O365   1.256       .  A
C364       C1178   1.468   1_455  S
O365       Cr372   1.977       .  S
O366       Cr372   1.977       .  S
O366        C367   1.256       .  A
C367        O368   1.256       .  A
O368       Cr373   1.977       .  S
O369       Cr373   1.977       .  S
O369        C370   1.256       .  A
C370        C389   1.468       .  S
Cr371       O374   1.827       .  S
Cr372       O374   1.827       .  S
Cr373       O374   1.827       .  S
O375       Cr393   1.977       .  S
O375        C383   1.256       .  A
O376       Cr393   1.977       .  S
O376        C377   1.256       .  A
C377        O378   1.256       .  A
C377        C707   1.468       .  S
O378       Cr394   1.977       .  S
O379       Cr394   1.977       .  S
O379        C380   1.256       .  A
C380        O381   1.256       .  A
O381       Cr395   1.977       .  S
O382       Cr395   1.977       .  S
O382        C383   1.256       .  A
O384       Cr393   1.977       .  S
O384        C392   1.256       .  A
O385       Cr393   1.977       .  S
O385        C386   1.256       .  A
C386        O387   1.256       .  A
C386        C760   1.468       .  S
O387       Cr394   1.977       .  S
O388       Cr394   1.977       .  S
O388        C389   1.256       .  A
C389        O390   1.256       .  A
O390       Cr395   1.977       .  S
O391       Cr395   1.977       .  S
O391        C392   1.256       .  A
Cr393       O396   1.827       .  S
Cr394       O396   1.827       .  S
Cr395       O396   1.827       .  S
O397       Cr415   1.977       .  S
O397        C405   1.256       .  A
O398       Cr415   1.977       .  S
O398        C399   1.256       .  A
C399        O400   1.256       .  A
O400       Cr416   1.977       .  S
O401       Cr416   1.977       .  S
O401        C402   1.256       .  A
C402        O403   1.256       .  A
C402        C603   1.468       .  S
O403       Cr417   1.977       .  S
O404       Cr417   1.977       .  S
O404        C405   1.256       .  A
C405        C468   1.468       .  S
O406       Cr415   1.977       .  S
O406        C414   1.256       .  A
O407       Cr415   1.977       .  S
O407        C408   1.256       .  A
C408        O409   1.256       .  A
O409       Cr416   1.977       .  S
O410       Cr416   1.977       .  S
O410        C411   1.256       .  A
C411        O412   1.256       .  A
C411        C568   1.468       .  S
O412       Cr417   1.977       .  S
O413       Cr417   1.977       .  S
O413        C414   1.256       .  A
C414        C433   1.468       .  S
Cr415       O418   1.827       .  S
Cr416       O418   1.827       .  S
Cr417       O418   1.827       .  S
O419       Cr437   1.977       .  S
O419        C427   1.256       .  A
O420       Cr437   1.977       .  S
O420        C421   1.256       .  A
C421        O422   1.256       .  A
C421        C883   1.468   1_554  S
O422       Cr438   1.977       .  S
O423       Cr438   1.977       .  S
O423        C424   1.256       .  A
C424        O425   1.256       .  A
C424        C493   1.468   1_554  S
O425       Cr439   1.977       .  S
O426       Cr439   1.977       .  S
O426        C427   1.256       .  A
C427        C754   1.468   1_544  S
O428       Cr437   1.977       .  S
O428        C436   1.256       .  A
O429       Cr437   1.977       .  S
O429        C430   1.256       .  A
C430        O431   1.256       .  A
C430        C804   1.468       .  S
O431       Cr438   1.977       .  S
O432       Cr438   1.977       .  S
O432        C433   1.256       .  A
C433        O434   1.256       .  A
O434       Cr439   1.977       .  S
O435       Cr439   1.977       .  S
O435        C436   1.256       .  A
C436        C675   1.468   1_545  S
Cr437       O440   1.827       .  S
Cr438       O440   1.827       .  S
Cr439       O440   1.827       .  S
O441       Cr459   1.977       .  S
O441        C449   1.256       .  A
O442       Cr459   1.977       .  S
O442        C443   1.256       .  A
C443        O444   1.256       .  A
O444       Cr460   1.977       .  S
O445       Cr460   1.977       .  S
O445        C446   1.256       .  A
C446        O447   1.256       .  A
C446        C647   1.468       .  S
O447       Cr461   1.977       .  S
O448       Cr461   1.977       .  S
O448        C449   1.256       .  A
C449        C512   1.468       .  S
O450       Cr459   1.977       .  S
O450        C458   1.256       .  A
O451       Cr459   1.977       .  S
O451        C452   1.256       .  A
C452        O453   1.256       .  A
O453       Cr460   1.977       .  S
O454       Cr460   1.977       .  S
O454        C455   1.256       .  A
C455        O456   1.256       .  A
C455        C612   1.468       .  S
O456       Cr461   1.977       .  S
O457       Cr461   1.977       .  S
O457        C458   1.256       .  A
C458        C477   1.468       .  S
Cr459       O462   1.827       .  S
Cr460       O462   1.827       .  S
Cr461       O462   1.827       .  S
O463       Cr481   1.977       .  S
O463        C471   1.256       .  A
O464       Cr481   1.977       .  S
O464        C465   1.256       .  A
C465        O466   1.256       .  A
C465        C795   1.468       .  S
O466       Cr482   1.977       .  S
O467       Cr482   1.977       .  S
O467        C468   1.256       .  A
C468        O469   1.256       .  A
O469       Cr483   1.977       .  S
O470       Cr483   1.977       .  S
O470        C471   1.256       .  A
C471        C666   1.468   1_545  S
O472       Cr481   1.977       .  S
O472        C480   1.256       .  A
O473       Cr481   1.977       .  S
O473        C474   1.256       .  A
C474        O475   1.256       .  A
C474        C848   1.468       .  S
O475       Cr482   1.977       .  S
O476       Cr482   1.977       .  S
O476        C477   1.256       .  A
C477        O478   1.256       .  A
O478       Cr483   1.977       .  S
O479       Cr483   1.977       .  S
O479        C480   1.256       .  A
C480        C719   1.468   1_545  S
Cr481       O484   1.827       .  S
Cr482       O484   1.827       .  S
Cr483       O484   1.827       .  S
O485       Cr503   1.977       .  S
O485        C493   1.256       .  A
O486       Cr503   1.977       .  S
O486        C487   1.256       .  A
C487        O488   1.256       .  A
O488       Cr504   1.977       .  S
O489       Cr504   1.977       .  S
O489        C490   1.256       .  A
C490        O491   1.256       .  A
C490        C559   1.468   1_556  S
O491       Cr505   1.977       .  S
O492       Cr505   1.977       .  S
O492        C493   1.256       .  A
O494       Cr503   1.977       .  S
O494        C502   1.256       .  A
O495       Cr503   1.977       .  S
O495        C496   1.256       .  A
C496        O497   1.256       .  A
O497       Cr504   1.977       .  S
O498       Cr504   1.977       .  S
O498        C499   1.256       .  A
C499        O500   1.256       .  A
C499        C656   1.468       .  S
O500       Cr505   1.977       .  S
O501       Cr505   1.977       .  S
O501        C502   1.256       .  A
C502        C521   1.468       .  S
Cr503       O506   1.827       .  S
Cr504       O506   1.827       .  S
Cr505       O506   1.827       .  S
O507       Cr525   1.977       .  S
O507        C515   1.256       .  A
O508       Cr525   1.977       .  S
O508        C509   1.256       .  A
C509        O510   1.256       .  A
C509        C839   1.468       .  S
O510       Cr526   1.977       .  S
O511       Cr526   1.977       .  S
O511        C512   1.256       .  A
C512        O513   1.256       .  A
O513       Cr527   1.977       .  S
O514       Cr527   1.977       .  S
O514        C515   1.256       .  A
C515        C710   1.468   1_545  S
O516       Cr525   1.977       .  S
O516        C524   1.256       .  A
O517       Cr525   1.977       .  S
O517        C518   1.256       .  A
C518        O519   1.256       .  A
C518        C892   1.468       .  S
O519       Cr526   1.977       .  S
O520       Cr526   1.977       .  S
O520        C521   1.256       .  A
C521        O522   1.256       .  A
O522       Cr527   1.977       .  S
O523       Cr527   1.977       .  S
O523        C524   1.256       .  A
C524        C763   1.468   1_545  S
Cr525       O528   1.827       .  S
Cr526       O528   1.827       .  S
Cr527       O528   1.827       .  S
O529       Cr547   1.977       .  S
O529        C537   1.256       .  A
O530       Cr547   1.977       .  S
O530        C531   1.256       .  A
C531        O532   1.256       .  A
O532       Cr548   1.977       .  S
O533       Cr548   1.977       .  S
O533        C534   1.256       .  A
C534        O535   1.256       .  A
C534        C735   1.468       .  S
O535       Cr549   1.977       .  S
O536       Cr549   1.977       .  S
O536        C537   1.256       .  A
C537        C600   1.468       .  S
O538       Cr547   1.977       .  S
O538        C546   1.256       .  A
O539       Cr547   1.977       .  S
O539        C540   1.256       .  A
C540        O541   1.256       .  A
O541       Cr548   1.977       .  S
O542       Cr548   1.977       .  S
O542        C543   1.256       .  A
C543        O544   1.256       .  A
C543        C700   1.468       .  S
O544       Cr549   1.977       .  S
O545       Cr549   1.977       .  S
O545        C546   1.256       .  A
C546        C565   1.468       .  S
Cr547       O550   1.827       .  S
Cr548       O550   1.827       .  S
Cr549       O550   1.827       .  S
O551       Cr569   1.977       .  S
O551        C559   1.256       .  A
O552       Cr569   1.977       .  S
O552        C553   1.256       .  A
C553        O554   1.256       .  A
C553       C1015   1.468   1_554  S
O554       Cr570   1.977       .  S
O555       Cr570   1.977       .  S
O555        C556   1.256       .  A
C556        O557   1.256       .  A
C556        C625   1.468   1_554  S
O557       Cr571   1.977       .  S
O558       Cr571   1.977       .  S
O558        C559   1.256       .  A
O560       Cr569   1.977       .  S
O560        C568   1.256       .  A
O561       Cr569   1.977       .  S
O561        C562   1.256       .  A
C562        O563   1.256       .  A
C562        C936   1.468       .  S
O563       Cr570   1.977       .  S
O564       Cr570   1.977       .  S
O564        C565   1.256       .  A
C565        O566   1.256       .  A
O566       Cr571   1.977       .  S
O567       Cr571   1.977       .  S
O567        C568   1.256       .  A
Cr569       O572   1.827       .  S
Cr570       O572   1.827       .  S
Cr571       O572   1.827       .  S
O573       Cr591   1.977       .  S
O573        C581   1.256       .  A
O574       Cr591   1.977       .  S
O574        C575   1.256       .  A
C575        O576   1.256       .  A
O576       Cr592   1.977       .  S
O577       Cr592   1.977       .  S
O577        C578   1.256       .  A
C578        O579   1.256       .  A
C578        C779   1.468       .  S
O579       Cr593   1.977       .  S
O580       Cr593   1.977       .  S
O580        C581   1.256       .  A
C581        C644   1.468       .  S
O582       Cr591   1.977       .  S
O582        C590   1.256       .  A
O583       Cr591   1.977       .  S
O583        C584   1.256       .  A
C584        O585   1.256       .  A
O585       Cr592   1.977       .  S
O586       Cr592   1.977       .  S
O586        C587   1.256       .  A
C587        O588   1.256       .  A
C587        C744   1.468       .  S
O588       Cr593   1.977       .  S
O589       Cr593   1.977       .  S
O589        C590   1.256       .  A
C590        C609   1.468       .  S
Cr591       O594   1.827       .  S
Cr592       O594   1.827       .  S
Cr593       O594   1.827       .  S
O595       Cr613   1.977       .  S
O595        C603   1.256       .  A
O596       Cr613   1.977       .  S
O596        C597   1.256       .  A
C597        O598   1.256       .  A
C597        C927   1.468       .  S
O598       Cr614   1.977       .  S
O599       Cr614   1.977       .  S
O599        C600   1.256       .  A
C600        O601   1.256       .  A
O601       Cr615   1.977       .  S
O602       Cr615   1.977       .  S
O602        C603   1.256       .  A
O604       Cr613   1.977       .  S
O604        C612   1.256       .  A
O605       Cr613   1.977       .  S
O605        C606   1.256       .  A
C606        O607   1.256       .  A
C606        C980   1.468       .  S
O607       Cr614   1.977       .  S
O608       Cr614   1.977       .  S
O608        C609   1.256       .  A
C609        O610   1.256       .  A
O610       Cr615   1.977       .  S
O611       Cr615   1.977       .  S
O611        C612   1.256       .  A
Cr613       O616   1.827       .  S
Cr614       O616   1.827       .  S
Cr615       O616   1.827       .  S
O617       Cr635   1.977       .  S
O617        C625   1.256       .  A
O618       Cr635   1.977       .  S
O618        C619   1.256       .  A
C619        O620   1.256       .  A
O620       Cr636   1.977       .  S
O621       Cr636   1.977       .  S
O621        C622   1.256       .  A
C622        O623   1.256       .  A
C622        C691   1.468   1_556  S
O623       Cr637   1.977       .  S
O624       Cr637   1.977       .  S
O624        C625   1.256       .  A
O626       Cr635   1.977       .  S
O626        C634   1.256       .  A
O627       Cr635   1.977       .  S
O627        C628   1.256       .  A
C628        O629   1.256       .  A
O629       Cr636   1.977       .  S
O630       Cr636   1.977       .  S
O630        C631   1.256       .  A
C631        O632   1.256       .  A
C631        C788   1.468       .  S
O632       Cr637   1.977       .  S
O633       Cr637   1.977       .  S
O633        C634   1.256       .  A
C634        C653   1.468       .  S
Cr635       O638   1.827       .  S
Cr636       O638   1.827       .  S
Cr637       O638   1.827       .  S
O639       Cr657   1.977       .  S
O639        C647   1.256       .  A
O640       Cr657   1.977       .  S
O640        C641   1.256       .  A
C641        O642   1.256       .  A
C641        C971   1.468       .  S
O642       Cr658   1.977       .  S
O643       Cr658   1.977       .  S
O643        C644   1.256       .  A
C644        O645   1.256       .  A
O645       Cr659   1.977       .  S
O646       Cr659   1.977       .  S
O646        C647   1.256       .  A
O648       Cr657   1.977       .  S
O648        C656   1.256       .  A
O649       Cr657   1.977       .  S
O649        C650   1.256       .  A
C650        O651   1.256       .  A
C650       C1024   1.468       .  S
O651       Cr658   1.977       .  S
O652       Cr658   1.977       .  S
O652        C653   1.256       .  A
C653        O654   1.256       .  A
O654       Cr659   1.977       .  S
O655       Cr659   1.977       .  S
O655        C656   1.256       .  A
Cr657       O660   1.827       .  S
Cr658       O660   1.827       .  S
Cr659       O660   1.827       .  S
O661       Cr679   1.977       .  S
O661        C669   1.256       .  A
O662       Cr679   1.977       .  S
O662        C663   1.256       .  A
C663        O664   1.256       .  A
O664       Cr680   1.977       .  S
O665       Cr680   1.977       .  S
O665        C666   1.256       .  A
C666        O667   1.256       .  A
O667       Cr681   1.977       .  S
O668       Cr681   1.977       .  S
O668        C669   1.256       .  A
C669        C732   1.468       .  S
O670       Cr679   1.977       .  S
O670        C678   1.256       .  A
O671       Cr679   1.977       .  S
O671        C672   1.256       .  A
C672        O673   1.256       .  A
O673       Cr680   1.977       .  S
O674       Cr680   1.977       .  S
O674        C675   1.256       .  A
C675        O676   1.256       .  A
O676       Cr681   1.977       .  S
O677       Cr681   1.977       .  S
O677        C678   1.256       .  A
C678        C697   1.468       .  S
Cr679       O682   1.827       .  S
Cr680       O682   1.827       .  S
Cr681       O682   1.827       .  S
O683       Cr701   1.977       .  S
O683        C691   1.256       .  A
O684       Cr701   1.977       .  S
O684        C685   1.256       .  A
C685        O686   1.256       .  A
C685       C1147   1.468   1_554  S
O686       Cr702   1.977       .  S
O687       Cr702   1.977       .  S
O687        C688   1.256       .  A
C688        O689   1.256       .  A
C688        C757   1.468   1_554  S
O689       Cr703   1.977       .  S
O690       Cr703   1.977       .  S
O690        C691   1.256       .  A
O692       Cr701   1.977       .  S
O692        C700   1.256       .  A
O693       Cr701   1.977       .  S
O693        C694   1.256       .  A
C694        O695   1.256       .  A
C694       C1068   1.468       .  S
O695       Cr702   1.977       .  S
O696       Cr702   1.977       .  S
O696        C697   1.256       .  A
C697        O698   1.256       .  A
O698       Cr703   1.977       .  S
O699       Cr703   1.977       .  S
O699        C700   1.256       .  A
Cr701       O704   1.827       .  S
Cr702       O704   1.827       .  S
Cr703       O704   1.827       .  S
O705       Cr723   1.977       .  S
O705        C713   1.256       .  A
O706       Cr723   1.977       .  S
O706        C707   1.256       .  A
C707        O708   1.256       .  A
O708       Cr724   1.977       .  S
O709       Cr724   1.977       .  S
O709        C710   1.256       .  A
C710        O711   1.256       .  A
O711       Cr725   1.977       .  S
O712       Cr725   1.977       .  S
O712        C713   1.256       .  A
C713        C776   1.468       .  S
O714       Cr723   1.977       .  S
O714        C722   1.256       .  A
O715       Cr723   1.977       .  S
O715        C716   1.256       .  A
C716        O717   1.256       .  A
O717       Cr724   1.977       .  S
O718       Cr724   1.977       .  S
O718        C719   1.256       .  A
C719        O720   1.256       .  A
O720       Cr725   1.977       .  S
O721       Cr725   1.977       .  S
O721        C722   1.256       .  A
C722        C741   1.468       .  S
Cr723       O726   1.827       .  S
Cr724       O726   1.827       .  S
Cr725       O726   1.827       .  S
O727       Cr745   1.977       .  S
O727        C735   1.256       .  A
O728       Cr745   1.977       .  S
O728        C729   1.256       .  A
C729        O730   1.256       .  A
C729       C1059   1.468       .  S
O730       Cr746   1.977       .  S
O731       Cr746   1.977       .  S
O731        C732   1.256       .  A
C732        O733   1.256       .  A
O733       Cr747   1.977       .  S
O734       Cr747   1.977       .  S
O734        C735   1.256       .  A
O736       Cr745   1.977       .  S
O736        C744   1.256       .  A
O737       Cr745   1.977       .  S
O737        C738   1.256       .  A
C738        O739   1.256       .  A
C738       C1112   1.468       .  S
O739       Cr746   1.977       .  S
O740       Cr746   1.977       .  S
O740        C741   1.256       .  A
C741        O742   1.256       .  A
O742       Cr747   1.977       .  S
O743       Cr747   1.977       .  S
O743        C744   1.256       .  A
Cr745       O748   1.827       .  S
Cr746       O748   1.827       .  S
Cr747       O748   1.827       .  S
O749       Cr767   1.977       .  S
O749        C757   1.256       .  A
O750       Cr767   1.977       .  S
O750        C751   1.256       .  A
C751        O752   1.256       .  A
O752       Cr768   1.977       .  S
O753       Cr768   1.977       .  S
O753        C754   1.256       .  A
C754        O755   1.256       .  A
O755       Cr769   1.977       .  S
O756       Cr769   1.977       .  S
O756        C757   1.256       .  A
O758       Cr767   1.977       .  S
O758        C766   1.256       .  A
O759       Cr767   1.977       .  S
O759        C760   1.256       .  A
C760        O761   1.256       .  A
O761       Cr768   1.977       .  S
O762       Cr768   1.977       .  S
O762        C763   1.256       .  A
C763        O764   1.256       .  A
O764       Cr769   1.977       .  S
O765       Cr769   1.977       .  S
O765        C766   1.256       .  A
C766        C785   1.468       .  S
Cr767       O770   1.827       .  S
Cr768       O770   1.827       .  S
Cr769       O770   1.827       .  S
O771       Cr789   1.977       .  S
O771        C779   1.256       .  A
O772       Cr789   1.977       .  S
O772        C773   1.256       .  A
C773        O774   1.256       .  A
C773       C1103   1.468       .  S
O774       Cr790   1.977       .  S
O775       Cr790   1.977       .  S
O775        C776   1.256       .  A
C776        O777   1.256       .  A
O777       Cr791   1.977       .  S
O778       Cr791   1.977       .  S
O778        C779   1.256       .  A
O780       Cr789   1.977       .  S
O780        C788   1.256       .  A
O781       Cr789   1.977       .  S
O781        C782   1.256       .  A
C782        O783   1.256       .  A
C782       C1156   1.468       .  S
O783       Cr790   1.977       .  S
O784       Cr790   1.977       .  S
O784        C785   1.256       .  A
C785        O786   1.256       .  A
O786       Cr791   1.977       .  S
O787       Cr791   1.977       .  S
O787        C788   1.256       .  A
Cr789       O792   1.827       .  S
Cr790       O792   1.827       .  S
Cr791       O792   1.827       .  S
O793       Cr811   1.977       .  S
O793        C801   1.256       .  A
O794       Cr811   1.977       .  S
O794        C795   1.256       .  A
C795        O796   1.256       .  A
O796       Cr812   1.977       .  S
O797       Cr812   1.977       .  S
O797        C798   1.256       .  A
C798        O799   1.256       .  A
C798        C999   1.468       .  S
O799       Cr813   1.977       .  S
O800       Cr813   1.977       .  S
O800        C801   1.256       .  A
C801        C864   1.468       .  S
O802       Cr811   1.977       .  S
O802        C810   1.256       .  A
O803       Cr811   1.977       .  S
O803        C804   1.256       .  A
C804        O805   1.256       .  A
O805       Cr812   1.977       .  S
O806       Cr812   1.977       .  S
O806        C807   1.256       .  A
C807        O808   1.256       .  A
C807        C964   1.468       .  S
O808       Cr813   1.977       .  S
O809       Cr813   1.977       .  S
O809        C810   1.256       .  A
C810        C829   1.468       .  S
Cr811       O814   1.827       .  S
Cr812       O814   1.827       .  S
Cr813       O814   1.827       .  S
O815       Cr833   1.977       .  S
O815        C823   1.256       .  A
O816       Cr833   1.977       .  S
O816        C817   1.256       .  A
C817        O818   1.256       .  A
O818       Cr834   1.977       .  S
O819       Cr834   1.977       .  S
O819        C820   1.256       .  A
C820        O821   1.256       .  A
C820        C889   1.468   1_554  S
O821       Cr835   1.977       .  S
O822       Cr835   1.977       .  S
O822        C823   1.256       .  A
C823       C1150   1.468   1_544  S
O824       Cr833   1.977       .  S
O824        C832   1.256       .  A
O825       Cr833   1.977       .  S
O825        C826   1.256       .  A
C826        O827   1.256       .  A
O827       Cr834   1.977       .  S
O828       Cr834   1.977       .  S
O828        C829   1.256       .  A
C829        O830   1.256       .  A
O830       Cr835   1.977       .  S
O831       Cr835   1.977       .  S
O831        C832   1.256       .  A
C832       C1071   1.468   1_545  S
Cr833       O836   1.827       .  S
Cr834       O836   1.827       .  S
Cr835       O836   1.827       .  S
O837       Cr855   1.977       .  S
O837        C845   1.256       .  A
O838       Cr855   1.977       .  S
O838        C839   1.256       .  A
C839        O840   1.256       .  A
O840       Cr856   1.977       .  S
O841       Cr856   1.977       .  S
O841        C842   1.256       .  A
C842        O843   1.256       .  A
C842       C1043   1.468       .  S
O843       Cr857   1.977       .  S
O844       Cr857   1.977       .  S
O844        C845   1.256       .  A
C845        C908   1.468       .  S
O846       Cr855   1.977       .  S
O846        C854   1.256       .  A
O847       Cr855   1.977       .  S
O847        C848   1.256       .  A
C848        O849   1.256       .  A
O849       Cr856   1.977       .  S
O850       Cr856   1.977       .  S
O850        C851   1.256       .  A
C851        O852   1.256       .  A
C851       C1008   1.468       .  S
O852       Cr857   1.977       .  S
O853       Cr857   1.977       .  S
O853        C854   1.256       .  A
C854        C873   1.468       .  S
Cr855       O858   1.827       .  S
Cr856       O858   1.827       .  S
Cr857       O858   1.827       .  S
O859       Cr877   1.977       .  S
O859        C867   1.256       .  A
O860       Cr877   1.977       .  S
O860        C861   1.256       .  A
C861        O862   1.256       .  A
O862       Cr878   1.977       .  S
O863       Cr878   1.977       .  S
O863        C864   1.256       .  A
C864        O865   1.256       .  A
O865       Cr879   1.977       .  S
O866       Cr879   1.977       .  S
O866        C867   1.256       .  A
C867       C1062   1.468   1_545  S
O868       Cr877   1.977       .  S
O868        C876   1.256       .  A
O869       Cr877   1.977       .  S
O869        C870   1.256       .  A
C870        O871   1.256       .  A
O871       Cr878   1.977       .  S
O872       Cr878   1.977       .  S
O872        C873   1.256       .  A
C873        O874   1.256       .  A
O874       Cr879   1.977       .  S
O875       Cr879   1.977       .  S
O875        C876   1.256       .  A
C876       C1115   1.468   1_545  S
Cr877       O880   1.827       .  S
Cr878       O880   1.827       .  S
Cr879       O880   1.827       .  S
O881       Cr899   1.977       .  S
O881        C889   1.256       .  A
O882       Cr899   1.977       .  S
O882        C883   1.256       .  A
C883        O884   1.256       .  A
O884       Cr900   1.977       .  S
O885       Cr900   1.977       .  S
O885        C886   1.256       .  A
C886        O887   1.256       .  A
C886        C955   1.468   1_556  S
O887       Cr901   1.977       .  S
O888       Cr901   1.977       .  S
O888        C889   1.256       .  A
O890       Cr899   1.977       .  S
O890        C898   1.256       .  A
O891       Cr899   1.977       .  S
O891        C892   1.256       .  A
C892        O893   1.256       .  A
O893       Cr900   1.977       .  S
O894       Cr900   1.977       .  S
O894        C895   1.256       .  A
C895        O896   1.256       .  A
C895       C1052   1.468       .  S
O896       Cr901   1.977       .  S
O897       Cr901   1.977       .  S
O897        C898   1.256       .  A
C898        C917   1.468       .  S
Cr899       O902   1.827       .  S
Cr900       O902   1.827       .  S
Cr901       O902   1.827       .  S
O903       Cr921   1.977       .  S
O903        C911   1.256       .  A
O904       Cr921   1.977       .  S
O904        C905   1.256       .  A
C905        O906   1.256       .  A
O906       Cr922   1.977       .  S
O907       Cr922   1.977       .  S
O907        C908   1.256       .  A
C908        O909   1.256       .  A
O909       Cr923   1.977       .  S
O910       Cr923   1.977       .  S
O910        C911   1.256       .  A
C911       C1106   1.468   1_545  S
O912       Cr921   1.977       .  S
O912        C920   1.256       .  A
O913       Cr921   1.977       .  S
O913        C914   1.256       .  A
C914        O915   1.256       .  A
O915       Cr922   1.977       .  S
O916       Cr922   1.977       .  S
O916        C917   1.256       .  A
C917        O918   1.256       .  A
O918       Cr923   1.977       .  S
O919       Cr923   1.977       .  S
O919        C920   1.256       .  A
C920       C1159   1.468   1_545  S
Cr921       O924   1.827       .  S
Cr922       O924   1.827       .  S
Cr923       O924   1.827       .  S
O925       Cr943   1.977       .  S
O925        C933   1.256       .  A
O926       Cr943   1.977       .  S
O926        C927   1.256       .  A
C927        O928   1.256       .  A
O928       Cr944   1.977       .  S
O929       Cr944   1.977       .  S
O929        C930   1.256       .  A
C930        O931   1.256       .  A
C930       C1131   1.468       .  S
O931       Cr945   1.977       .  S
O932       Cr945   1.977       .  S
O932        C933   1.256       .  A
C933        C996   1.468       .  S
O934       Cr943   1.977       .  S
O934        C942   1.256       .  A
O935       Cr943   1.977       .  S
O935        C936   1.256       .  A
C936        O937   1.256       .  A
O937       Cr944   1.977       .  S
O938       Cr944   1.977       .  S
O938        C939   1.256       .  A
C939        O940   1.256       .  A
C939       C1096   1.468       .  S
O940       Cr945   1.977       .  S
O941       Cr945   1.977       .  S
O941        C942   1.256       .  A
C942        C961   1.468       .  S
Cr943       O946   1.827       .  S
Cr944       O946   1.827       .  S
Cr945       O946   1.827       .  S
O947       Cr965   1.977       .  S
O947        C955   1.256       .  A
O948       Cr965   1.977       .  S
O948        C949   1.256       .  A
C949        O950   1.256       .  A
O950       Cr966   1.977       .  S
O951       Cr966   1.977       .  S
O951        C952   1.256       .  A
C952        O953   1.256       .  A
C952       C1021   1.468   1_554  S
O953       Cr967   1.977       .  S
O954       Cr967   1.977       .  S
O954        C955   1.256       .  A
O956       Cr965   1.977       .  S
O956        C964   1.256       .  A
O957       Cr965   1.977       .  S
O957        C958   1.256       .  A
C958        O959   1.256       .  A
O959       Cr966   1.977       .  S
O960       Cr966   1.977       .  S
O960        C961   1.256       .  A
C961        O962   1.256       .  A
O962       Cr967   1.977       .  S
O963       Cr967   1.977       .  S
O963        C964   1.256       .  A
Cr965       O968   1.827       .  S
Cr966       O968   1.827       .  S
Cr967       O968   1.827       .  S
O969       Cr987   1.977       .  S
O969        C977   1.256       .  A
O970       Cr987   1.977       .  S
O970        C971   1.256       .  A
C971        O972   1.256       .  A
O972       Cr988   1.977       .  S
O973       Cr988   1.977       .  S
O973        C974   1.256       .  A
C974        O975   1.256       .  A
C974       C1175   1.468       .  S
O975       Cr989   1.977       .  S
O976       Cr989   1.977       .  S
O976        C977   1.256       .  A
C977       C1040   1.468       .  S
O978       Cr987   1.977       .  S
O978        C986   1.256       .  A
O979       Cr987   1.977       .  S
O979        C980   1.256       .  A
C980        O981   1.256       .  A
O981       Cr988   1.977       .  S
O982       Cr988   1.977       .  S
O982        C983   1.256       .  A
C983        O984   1.256       .  A
C983       C1140   1.468       .  S
O984       Cr989   1.977       .  S
O985       Cr989   1.977       .  S
O985        C986   1.256       .  A
C986       C1005   1.468       .  S
Cr987       O990   1.827       .  S
Cr988       O990   1.827       .  S
Cr989       O990   1.827       .  S
O991      Cr1009   1.977       .  S
O991        C999   1.256       .  A
O992      Cr1009   1.977       .  S
O992        C993   1.256       .  A
C993        O994   1.256       .  A
O994      Cr1010   1.977       .  S
O995      Cr1010   1.977       .  S
O995        C996   1.256       .  A
C996        O997   1.256       .  A
O997      Cr1011   1.977       .  S
O998      Cr1011   1.977       .  S
O998        C999   1.256       .  A
O1000     Cr1009   1.977       .  S
O1000      C1008   1.256       .  A
O1001     Cr1009   1.977       .  S
O1001      C1002   1.256       .  A
C1002      O1003   1.256       .  A
O1003     Cr1010   1.977       .  S
O1004     Cr1010   1.977       .  S
O1004      C1005   1.256       .  A
C1005      O1006   1.256       .  A
O1006     Cr1011   1.977       .  S
O1007     Cr1011   1.977       .  S
O1007      C1008   1.256       .  A
Cr1009     O1012   1.827       .  S
Cr1010     O1012   1.827       .  S
Cr1011     O1012   1.827       .  S
O1013     Cr1031   1.977       .  S
O1013      C1021   1.256       .  A
O1014     Cr1031   1.977       .  S
O1014      C1015   1.256       .  A
C1015      O1016   1.256       .  A
O1016     Cr1032   1.977       .  S
O1017     Cr1032   1.977       .  S
O1017      C1018   1.256       .  A
C1018      O1019   1.256       .  A
C1018      C1087   1.468   1_556  S
O1019     Cr1033   1.977       .  S
O1020     Cr1033   1.977       .  S
O1020      C1021   1.256       .  A
O1022     Cr1031   1.977       .  S
O1022      C1030   1.256       .  A
O1023     Cr1031   1.977       .  S
O1023      C1024   1.256       .  A
C1024      O1025   1.256       .  A
O1025     Cr1032   1.977       .  S
O1026     Cr1032   1.977       .  S
O1026      C1027   1.256       .  A
C1027      O1028   1.256       .  A
C1027      C1184   1.468       .  S
O1028     Cr1033   1.977       .  S
O1029     Cr1033   1.977       .  S
O1029      C1030   1.256       .  A
C1030      C1049   1.468       .  S
Cr1031     O1034   1.827       .  S
Cr1032     O1034   1.827       .  S
Cr1033     O1034   1.827       .  S
O1035     Cr1053   1.977       .  S
O1035      C1043   1.256       .  A
O1036     Cr1053   1.977       .  S
O1036      C1037   1.256       .  A
C1037      O1038   1.256       .  A
O1038     Cr1054   1.977       .  S
O1039     Cr1054   1.977       .  S
O1039      C1040   1.256       .  A
C1040      O1041   1.256       .  A
O1041     Cr1055   1.977       .  S
O1042     Cr1055   1.977       .  S
O1042      C1043   1.256       .  A
O1044     Cr1053   1.977       .  S
O1044      C1052   1.256       .  A
O1045     Cr1053   1.977       .  S
O1045      C1046   1.256       .  A
C1046      O1047   1.256       .  A
O1047     Cr1054   1.977       .  S
O1048     Cr1054   1.977       .  S
O1048      C1049   1.256       .  A
C1049      O1050   1.256       .  A
O1050     Cr1055   1.977       .  S
O1051     Cr1055   1.977       .  S
O1051      C1052   1.256       .  A
Cr1053     O1056   1.827       .  S
Cr1054     O1056   1.827       .  S
Cr1055     O1056   1.827       .  S
O1057     Cr1075   1.977       .  S
O1057      C1065   1.256       .  A
O1058     Cr1075   1.977       .  S
O1058      C1059   1.256       .  A
C1059      O1060   1.256       .  A
O1060     Cr1076   1.977       .  S
O1061     Cr1076   1.977       .  S
O1061      C1062   1.256       .  A
C1062      O1063   1.256       .  A
O1063     Cr1077   1.977       .  S
O1064     Cr1077   1.977       .  S
O1064      C1065   1.256       .  A
C1065      C1128   1.468       .  S
O1066     Cr1075   1.977       .  S
O1066      C1074   1.256       .  A
O1067     Cr1075   1.977       .  S
O1067      C1068   1.256       .  A
C1068      O1069   1.256       .  A
O1069     Cr1076   1.977       .  S
O1070     Cr1076   1.977       .  S
O1070      C1071   1.256       .  A
C1071      O1072   1.256       .  A
O1072     Cr1077   1.977       .  S
O1073     Cr1077   1.977       .  S
O1073      C1074   1.256       .  A
C1074      C1093   1.468       .  S
Cr1075     O1078   1.827       .  S
Cr1076     O1078   1.827       .  S
Cr1077     O1078   1.827       .  S
O1079     Cr1097   1.977       .  S
O1079      C1087   1.256       .  A
O1080     Cr1097   1.977       .  S
O1080      C1081   1.256       .  A
C1081      O1082   1.256       .  A
O1082     Cr1098   1.977       .  S
O1083     Cr1098   1.977       .  S
O1083      C1084   1.256       .  A
C1084      O1085   1.256       .  A
C1084      C1153   1.468   1_554  S
O1085     Cr1099   1.977       .  S
O1086     Cr1099   1.977       .  S
O1086      C1087   1.256       .  A
O1088     Cr1097   1.977       .  S
O1088      C1096   1.256       .  A
O1089     Cr1097   1.977       .  S
O1089      C1090   1.256       .  A
C1090      O1091   1.256       .  A
O1091     Cr1098   1.977       .  S
O1092     Cr1098   1.977       .  S
O1092      C1093   1.256       .  A
C1093      O1094   1.256       .  A
O1094     Cr1099   1.977       .  S
O1095     Cr1099   1.977       .  S
O1095      C1096   1.256       .  A
Cr1097     O1100   1.827       .  S
Cr1098     O1100   1.827       .  S
Cr1099     O1100   1.827       .  S
O1101     Cr1119   1.977       .  S
O1101      C1109   1.256       .  A
O1102     Cr1119   1.977       .  S
O1102      C1103   1.256       .  A
C1103      O1104   1.256       .  A
O1104     Cr1120   1.977       .  S
O1105     Cr1120   1.977       .  S
O1105      C1106   1.256       .  A
C1106      O1107   1.256       .  A
O1107     Cr1121   1.977       .  S
O1108     Cr1121   1.977       .  S
O1108      C1109   1.256       .  A
C1109      C1172   1.468       .  S
O1110     Cr1119   1.977       .  S
O1110      C1118   1.256       .  A
O1111     Cr1119   1.977       .  S
O1111      C1112   1.256       .  A
C1112      O1113   1.256       .  A
O1113     Cr1120   1.977       .  S
O1114     Cr1120   1.977       .  S
O1114      C1115   1.256       .  A
C1115      O1116   1.256       .  A
O1116     Cr1121   1.977       .  S
O1117     Cr1121   1.977       .  S
O1117      C1118   1.256       .  A
C1118      C1137   1.468       .  S
Cr1119     O1122   1.827       .  S
Cr1120     O1122   1.827       .  S
Cr1121     O1122   1.827       .  S
O1123     Cr1141   1.977       .  S
O1123      C1131   1.256       .  A
O1124     Cr1141   1.977       .  S
O1124      C1125   1.256       .  A
C1125      O1126   1.256       .  A
O1126     Cr1142   1.977       .  S
O1127     Cr1142   1.977       .  S
O1127      C1128   1.256       .  A
C1128      O1129   1.256       .  A
O1129     Cr1143   1.977       .  S
O1130     Cr1143   1.977       .  S
O1130      C1131   1.256       .  A
O1132     Cr1141   1.977       .  S
O1132      C1140   1.256       .  A
O1133     Cr1141   1.977       .  S
O1133      C1134   1.256       .  A
C1134      O1135   1.256       .  A
O1135     Cr1142   1.977       .  S
O1136     Cr1142   1.977       .  S
O1136      C1137   1.256       .  A
C1137      O1138   1.256       .  A
O1138     Cr1143   1.977       .  S
O1139     Cr1143   1.977       .  S
O1139      C1140   1.256       .  A
Cr1141     O1144   1.827       .  S
Cr1142     O1144   1.827       .  S
Cr1143     O1144   1.827       .  S
O1145     Cr1163   1.977       .  S
O1145      C1153   1.256       .  A
O1146     Cr1163   1.977       .  S
O1146      C1147   1.256       .  A
C1147      O1148   1.256       .  A
O1148     Cr1164   1.977       .  S
O1149     Cr1164   1.977       .  S
O1149      C1150   1.256       .  A
C1150      O1151   1.256       .  A
O1151     Cr1165   1.977       .  S
O1152     Cr1165   1.977       .  S
O1152      C1153   1.256       .  A
O1154     Cr1163   1.977       .  S
O1154      C1162   1.256       .  A
O1155     Cr1163   1.977       .  S
O1155      C1156   1.256       .  A
C1156      O1157   1.256       .  A
O1157     Cr1164   1.977       .  S
O1158     Cr1164   1.977       .  S
O1158      C1159   1.256       .  A
C1159      O1160   1.256       .  A
O1160     Cr1165   1.977       .  S
O1161     Cr1165   1.977       .  S
O1161      C1162   1.256       .  A
C1162      C1181   1.468       .  S
Cr1163     O1166   1.827       .  S
Cr1164     O1166   1.827       .  S
Cr1165     O1166   1.827       .  S
O1167     Cr1185   1.977       .  S
O1167      C1175   1.256       .  A
O1168     Cr1185   1.977       .  S
O1168      C1169   1.256       .  A
C1169      O1170   1.256       .  A
O1170     Cr1186   1.977       .  S
O1171     Cr1186   1.977       .  S
O1171      C1172   1.256       .  A
C1172      O1173   1.256       .  A
O1173     Cr1187   1.977       .  S
O1174     Cr1187   1.977       .  S
O1174      C1175   1.256       .  A
O1176     Cr1185   1.977       .  S
O1176      C1184   1.256       .  A
O1177     Cr1185   1.977       .  S
O1177      C1178   1.256       .  A
C1178      O1179   1.256       .  A
O1179     Cr1186   1.977       .  S
O1180     Cr1186   1.977       .  S
O1180      C1181   1.256       .  A
C1181      O1182   1.256       .  A
O1182     Cr1187   1.977       .  S
O1183     Cr1187   1.977       .  S
O1183      C1184   1.256       .  A
Cr1185     O1188   1.827       .  S
Cr1186     O1188   1.827       .  S
Cr1187     O1188   1.827       .  S
