geometry optimzed in LAMMPS
_audit_creation_date              2020-11-30 
_audit_creation_method            'lammps2cif' 
_symmetry_space_group_name_H-M    'P1' 
_symmetry_Int_Tables_number       1 
_symmetry_cell_setting            triclinic 
loop_ 
_symmetry_equiv_pos_as_xyz 
  x,y,z 
_cell_length_a                    39.58986736244504 
_cell_length_b                    39.867154722001544 
_cell_length_c                    70.98717057473688 
_cell_angle_alpha                 90.00389424972263 
_cell_angle_beta                  90.00080214793216 
_cell_angle_gamma                 124.14863923650475 
loop_ 
_atom_site_label 
_atom_site_type_symbol 
_atom_site_fract_x 
_atom_site_fract_y 
_atom_site_fract_z 
_atom_site_charge 
In1        In  0.01366550  0.79170255  0.92491074     1.36870
C2          C  0.01093422  0.77450549  0.96130198     0.78360
O3          O  0.08243497  0.82639322  0.92660507    -0.60090
O4          O  0.05630211  0.85779483  0.91760300    -0.51000
C5          C  0.00997457  0.74894280  0.89520837     0.71020
O6          O  0.01527616  0.74116303  0.91171346    -0.45860
C7          C  0.94459887  0.78779520  0.92386428     0.75730
O8          O  0.00546027  0.74970905  0.94865008    -0.57720
O9          O  0.97894112  0.82031315  0.92129405    -0.47810
O10         O  0.01811645  0.80764352  0.95537831    -0.54150
C11         C  0.08826764  0.85946597  0.92139423     0.85910
O12         O  0.00601891  0.77802479  0.89386402    -0.56040
O13         O  0.94518725  0.75687220  0.92644976    -0.59340
In14       In  0.26637957  0.04312633  0.92450793     1.36870
C15         C  0.28458341  0.04754990  0.96087232     0.78360
O16         O  0.30026851  0.11113560  0.92545686    -0.60090
O17         O  0.23633412  0.07636339  0.92040768    -0.51000
C18         C  0.31008326  0.04587954  0.89528915     0.71020
O19         O  0.31676034  0.03990717  0.91188116    -0.45860
C20         C  0.19827529  0.96884225  0.92120679     0.75730
O21         O  0.30994699  0.05437280  0.94817230    -0.57720
O22         O  0.19998120  0.00041018  0.91697593    -0.47810
O23         O  0.25035988  0.03824701  0.95502291    -0.54150
C24         C  0.26870182  0.11088843  0.92270444     0.85910
O25         O  0.28157652  0.05089945  0.89360210    -0.56040
O26         O  0.23150153  0.97489012  0.92674072    -0.59340
In27       In  0.36540324  0.99084605  0.81964193     1.36870
C28         C  0.29332404  0.91919175  0.81968769     0.78360
O29         O  0.35518089  0.99267297  0.85041350    -0.60090
O30         O  0.36465542  0.04141812  0.83360314    -0.51000
C31         C  0.43619550  0.99872168  0.82417675     0.71020
O32         O  0.40245938  0.96521913  0.82193630    -0.45860
C33         C  0.37479430  0.01185263  0.78341062     0.75730
O34         O  0.32562658  0.92408458  0.82586961    -0.57720
O35         O  0.36031056  0.02464879  0.79501942    -0.47810
O36         O  0.29797637  0.95098038  0.81323004    -0.54150
C37         C  0.35640221  0.02482947  0.84961307     0.85910
O38         O  0.43375832  0.02899470  0.82512808    -0.56040
O39         O  0.38418286  0.98924563  0.79047108    -0.59340
In40       In  0.06679290  0.69155643  0.82098107     1.36870
C41         C  0.13773972  0.76393836  0.82138537     0.78360
O42         O  0.08508944  0.68804622  0.79214292    -0.60090
O43         O  0.02940884  0.68382065  0.79492007    -0.51000
C44         C  0.05566241  0.62005094  0.82666684     0.71020
O45         O  0.08920457  0.65351227  0.82934328    -0.45860
C46         C  0.03096162  0.70246974  0.84963910     0.75730
O47         O  0.13411340  0.73188046  0.82671519    -0.57720
O48         O  0.01957984  0.70081615  0.83285340    -0.47810
O49         O  0.10482421  0.75898029  0.81604833    -0.54150
C50         C  0.05478540  0.68402362  0.78398615     0.85910
O51         O  0.02665026  0.62300767  0.82196458    -0.56040
O52         O  0.05856888  0.69628720  0.85173278    -0.59340
In53       In  0.01634535  0.79407945  0.56218083     1.36870
C54         C  0.01260789  0.77584927  0.52587355     0.78360
O55         O  0.94799666  0.76063958  0.56055439    -0.60090
O56         O  0.98301319  0.82412088  0.56572343    -0.51000
C57         C  0.01240535  0.75087961  0.59176128     0.71020
O58         O  0.01933846  0.74432220  0.57532785    -0.45860
C59         C  0.09102255  0.86174406  0.56564928     0.75730
O60         O  0.00554531  0.75070333  0.53863675    -0.57720
O61         O  0.05914481  0.85998281  0.56975137    -0.47810
O62         O  0.02191271  0.80986099  0.53164278    -0.54150
C63         C  0.94831428  0.79207749  0.56311878     0.85910
O64         O  0.00699984  0.77900268  0.59310548    -0.56040
O65         O  0.08509296  0.82875651  0.56020996    -0.59340
In66       In  0.26902296  0.04529695  0.56158365     1.36870
C67         C  0.28542139  0.04800806  0.52508687     0.78360
O68         O  0.23402238  0.97705458  0.55973953    -0.60090
O69         O  0.20264870  0.00293588  0.56924824    -0.51000
C70         C  0.31242831  0.04798828  0.59089605     0.71020
O71         O  0.31999811  0.04313097  0.57426682    -0.45860
C72         C  0.27343173  0.11418371  0.56301986     0.75730
O73         O  0.31083140  0.05379338  0.53757090    -0.57720
O74         O  0.24059629  0.08012742  0.56554843    -0.47810
O75         O  0.25206099  0.04054566  0.53122582    -0.54150
C76         C  0.20088056  0.97121837  0.56526007     0.85910
O77         O  0.28332498  0.05212816  0.59255091    -0.56040
O78         O  0.30440816  0.11338442  0.56029567    -0.59340
In79       In  0.06845566  0.69249391  0.66586604     1.36870
C80         C  0.13946543  0.76489703  0.66577999     0.78360
O81         O  0.06054663  0.69761096  0.63511034    -0.60090
O82         O  0.02121266  0.70166731  0.65395403    -0.51000
C83         C  0.05833914  0.62152976  0.65983170     0.71020
O84         O  0.09159719  0.65527247  0.65722133    -0.45860
C85         C  0.05556186  0.68438256  0.70281463     0.75730
O86         O  0.13602509  0.73272499  0.66084593    -0.57720
O87         O  0.03030937  0.68406150  0.69175293    -0.47810
O88         O  0.10631351  0.76007761  0.67056361    -0.54150
C89         C  0.03282834  0.70363995  0.63718940     0.85910
O90         O  0.02899500  0.62388581  0.66462678    -0.56040
O91         O  0.08615971  0.68876864  0.69480684    -0.59340
In92       In  0.36702439  0.99207340  0.66666953     1.36870
C93         C  0.29514294  0.92018503  0.66738105     0.78360
O94         O  0.38442788  0.98880138  0.69595734    -0.60090
O95         O  0.36165104  0.02521811  0.69139462    -0.51000
C96         C  0.43891648  0.00272203  0.66082742     0.71020
O97         O  0.40521025  0.96870116  0.65995799    -0.45860
C98         C  0.35761035  0.02594978  0.63671496     0.75730
O99         O  0.32815880  0.92429441  0.66308679    -0.57720
O100        O  0.36594215  0.04251030  0.65272255    -0.47810
O101        O  0.29902565  0.95285985  0.67165497    -0.54150
C102        C  0.37532215  0.01167061  0.70303101     0.85910
O103        O  0.43590347  0.03218244  0.66391140    -0.56040
O104        O  0.35619551  0.99370429  0.63592104    -0.59340
In105      In  0.78400607  0.80033568  0.55695617     1.36870
C106        C  0.77926139  0.86414097  0.55836763     0.78360
O107        O  0.79578437  0.81002653  0.52622504    -0.60090
O108        O  0.73939486  0.75706888  0.53500772    -0.51000
C109        C  0.84791768  0.79575866  0.55971538     0.71020
O110        O  0.85113013  0.82903297  0.56048437    -0.45860
C111        C  0.74835656  0.76493781  0.58899846     0.75730
O112        O  0.81285057  0.86745739  0.55877552    -0.57720
O113        O  0.73276225  0.74860448  0.57332421    -0.47810
O114        O  0.74811768  0.82837851  0.55726203    -0.54150
C115        C  0.76233904  0.77830916  0.52155397     0.85910
O116        O  0.81224809  0.76490033  0.55732818    -0.56040
O117        O  0.78197172  0.79886411  0.58826322    -0.59340
In118      In  0.26931178  0.27988783  0.55618636     1.36870
C119        C  0.20519973  0.28491314  0.55764499     0.78360
O120        O  0.27299448  0.28548893  0.58743025    -0.60090
O121        O  0.32306467  0.33201884  0.57135538    -0.51000
C122        C  0.27287397  0.21577351  0.55968067     0.71020
O123        O  0.23987715  0.21344856  0.56102083    -0.45860
C124        C  0.28871005  0.29861857  0.52031699     0.75730
O125        O  0.20187899  0.25163079  0.55880789    -0.57720
O126        O  0.31126770  0.32232231  0.53328965    -0.47810
O127        O  0.24115254  0.31565351  0.55586273    -0.54150
C128        C  0.30747362  0.31858738  0.58738252     0.85910
O129        O  0.30406320  0.25071694  0.55645502    -0.56040
O130        O  0.25719271  0.26579845  0.52569305    -0.59340
In131      In  0.34773828  0.42674999  0.66421505     1.36870
C132        C  0.27704681  0.41945245  0.66182688     0.78360
O133        O  0.34569294  0.41626210  0.63343920    -0.60090
O134        O  0.34378927  0.37275674  0.65166214    -0.51000
C135        C  0.42148094  0.49473423  0.66123750     0.71020
O136        O  0.38913187  0.49207908  0.65704614    -0.45860
C137        C  0.34560605  0.41712033  0.70107266     0.75730
O138        O  0.31083826  0.45182669  0.65803522    -0.57720
O139        O  0.34569863  0.39217036  0.69008776    -0.47810
O140        O  0.27924816  0.39006137  0.66622446    -0.54150
C141        C  0.34293563  0.38342359  0.63502793     0.85910
O142        O  0.41629238  0.46184104  0.66642166    -0.56040
O143        O  0.34729546  0.44613214  0.69300771    -0.59340
In144      In  0.06080626  0.41222548  0.66510955     1.36870
C145        C  0.12816744  0.41324716  0.66410465     0.78360
O146        O  0.07994029  0.42663255  0.69466695    -0.60090
O147        O  0.01883561  0.37677371  0.69012840    -0.51000
C148        C  0.05506078  0.47507680  0.66102964     0.71020
O149        O  0.08820071  0.47757433  0.66014667    -0.45860
C150        C  0.03308259  0.37143471  0.63310099     0.75730
O151        O  0.12805009  0.44453085  0.66152636    -0.57720
O152        O  0.01645429  0.35505036  0.64869907    -0.47810
O153        O  0.09357517  0.38130722  0.66745282    -0.54150
C154        C  0.04684333  0.39876047  0.70193740     0.85910
O155        O  0.02391213  0.43965432  0.66385697    -0.56040
O156        O  0.06092809  0.40855272  0.63389829    -0.59340
In157      In  0.65312746  0.00675808  0.66759083     1.36870
C158        C  0.65252661  0.93995759  0.66929054     0.78360
O159        O  0.65723309  0.00066915  0.63671478    -0.60090
O160        O  0.70681223  0.05383870  0.64975344    -0.51000
C161        C  0.58901740  0.01057546  0.66194149     0.71020
O162        O  0.58718116  0.97795276  0.66219893    -0.45860
C163        C  0.66744413  0.02852882  0.70377209     0.75730
O164        O  0.62078105  0.93954864  0.66676924    -0.57720
O165        O  0.69553274  0.04679126  0.69160144    -0.47810
O166        O  0.68464764  0.97475362  0.67172605    -0.54150
C167        C  0.69202514  0.03285110  0.63490652     0.85910
O168        O  0.62456578  0.04226061  0.66410346    -0.56040
O169        O  0.63354822  0.00047928  0.69722804    -0.59340
In170      In  0.64298217  0.72398978  0.66712731     1.36870
C171        C  0.68666751  0.73084443  0.63763465     0.78360
O172        O  0.60854141  0.65593965  0.66905513    -0.60090
O173        O  0.57757469  0.68213180  0.65936623    -0.51000
C174        C  0.65395160  0.72608365  0.70383621     0.71020
O175        O  0.67688004  0.72285782  0.69266085    -0.45860
C176        C  0.64878643  0.79348809  0.66561320     0.75730
O177        O  0.69858447  0.73120412  0.65416818    -0.57720
O178        O  0.61595162  0.75953452  0.66264266    -0.47810
O179        O  0.65262539  0.72617460  0.63631729    -0.54150
C180        C  0.57547313  0.65022366  0.66337211     0.85910
O181        O  0.62600803  0.72711514  0.69604919    -0.56040
O182        O  0.67941080  0.79207882  0.66859461    -0.59340
In183      In  0.78142977  0.03382417  0.55466762     1.36870
C184        C  0.76172247  0.02770294  0.51844199     0.78360
O185        O  0.81550067  0.10123677  0.55095092    -0.60090
O186        O  0.84860908  0.07606331  0.55911536    -0.51000
C187        C  0.74675869  0.03984499  0.58551978     0.71020
O188        O  0.73358063  0.03893283  0.56921874    -0.45860
C189        C  0.77707287  0.96510741  0.55810785     0.75730
O190        O  0.73666605  0.02134897  0.53126447    -0.57720
O191        O  0.81020983  0.99944820  0.55886098    -0.47810
O192        O  0.79600753  0.03698793  0.52414116    -0.54150
C193        C  0.84946379  0.10727804  0.55507046     0.85910
O194        O  0.77663518  0.03672931  0.58603473    -0.56040
O195        O  0.74567526  0.96553845  0.55611139    -0.59340
In196      In  0.03388676  0.28208818  0.55338461     1.36870
C197        C  0.03801842  0.30024325  0.51708824     0.78360
O198        O  0.10271222  0.31786773  0.55477901    -0.60090
O199        O  0.06882822  0.25382497  0.55761715    -0.51000
C200        C  0.02805831  0.31672260  0.58414668     0.71020
O201        O  0.03066821  0.33074680  0.56788131    -0.45860
C202        C  0.95949428  0.21519530  0.55433519     0.75730
O203        O  0.04433168  0.32533561  0.52978189    -0.57720
O204        O  0.99077568  0.21544861  0.55797311    -0.47810
O205        O  0.03018784  0.26683540  0.52294657    -0.54150
C206        C  0.10334004  0.28681814  0.55687315     0.85910
O207        O  0.02971174  0.28614986  0.58469580    -0.56040
O208        O  0.96601385  0.24910206  0.55023437    -0.59340
In209      In  0.26137301  0.27490074  0.92771366     1.36870
C210        C  0.19702567  0.27957565  0.92668367     0.78360
O211        O  0.25119708  0.26270539  0.95841710    -0.60090
O212        O  0.30492943  0.31857576  0.94985015    -0.51000
C213        C  0.26568471  0.21116559  0.92491579     0.71020
O214        O  0.23232532  0.20822264  0.92390337    -0.45860
C215        C  0.29758503  0.31162644  0.89589292     0.75730
O216        O  0.19376469  0.24629629  0.92572420    -0.57720
O217        O  0.31370660  0.32644692  0.91169228    -0.47810
O218        O  0.23300963  0.31044951  0.92805608    -0.54150
C219        C  0.28326686  0.29567448  0.96321964     0.85910
O220        O  0.29679861  0.24651187  0.92742295    -0.56040
O221        O  0.26346287  0.27815806  0.89637319    -0.59340
In222      In  0.77861647  0.79312307  0.93062946     1.36870
C223        C  0.77341663  0.85663458  0.92898561     0.78360
O224        O  0.77400526  0.78976845  0.89940608    -0.60090
O225        O  0.72685650  0.73964052  0.91522004    -0.51000
C226        C  0.84288445  0.78919792  0.92741206     0.71020
O227        O  0.84544665  0.82206127  0.92591593    -0.45860
C228        C  0.75944568  0.77423736  0.96645225     0.75730
O229        O  0.80702699  0.86005322  0.92814305    -0.57720
O230        O  0.73539502  0.75196614  0.95349481    -0.47810
O231        O  0.74242630  0.82087166  0.93050766    -0.54150
C232        C  0.74091759  0.75532664  0.89927148     0.85910
O233        O  0.80764996  0.75836829  0.93071705    -0.56040
O234        O  0.79279991  0.80516060  0.96107547    -0.59340
In235      In  0.64953005  0.00016264  0.81992454     1.36870
C236        C  0.64835918  0.93295577  0.81905959     0.78360
O237        O  0.63242548  0.99491014  0.78998974    -0.60090
O238        O  0.69317706  0.04272824  0.79677372    -0.51000
C239        C  0.58504887  0.00394428  0.82353653     0.71020
O240        O  0.58296017  0.97153224  0.82095990    -0.45860
C241        C  0.68630358  0.02474091  0.85308172     0.75730
O242        O  0.61733795  0.93320364  0.82265580    -0.57720
O243        O  0.70289312  0.04539877  0.83830115    -0.47810
O244        O  0.67998419  0.96722985  0.81513369    -0.54150
C245        C  0.66614516  0.02453974  0.78413321     0.85910
O246        O  0.62099646  0.03537237  0.82498421    -0.56040
O247        O  0.65071600  0.99379456  0.85097836    -0.59340
In248      In  0.63674710  0.71598235  0.82101051     1.36870
C249        C  0.67860565  0.72061986  0.85086188     0.78360
O250        O  0.67364093  0.78404673  0.81952274    -0.60090
O251        O  0.61073501  0.75219160  0.82654603    -0.51000
C252        C  0.65005821  0.72088708  0.78443592     0.71020
O253        O  0.67267810  0.71745285  0.79572897    -0.45860
C254        C  0.56847838  0.64239924  0.82332926     0.75730
O255        O  0.69072902  0.72061996  0.83442248    -0.57720
O256        O  0.57053724  0.67433513  0.82720490    -0.47810
O257        O  0.64518190  0.71731052  0.85191615    -0.54150
C258        C  0.64352651  0.78592010  0.82316144     0.85910
O259        O  0.62096876  0.72024711  0.79200637    -0.56040
O260        O  0.60196802  0.64795603  0.81851819    -0.59340
In261      In  0.33978091  0.42018991  0.81900081     1.36870
C262        C  0.33317515  0.37551645  0.84792319     0.78360
O263        O  0.40841091  0.45480628  0.81763444    -0.60090
O264        O  0.38113834  0.48518912  0.82663662    -0.51000
C265        C  0.34010464  0.41287270  0.78205188     0.71020
O266        O  0.34097067  0.38807168  0.79282119    -0.45860
C267        C  0.26954405  0.41368669  0.82151424     0.75730
O268        O  0.33232493  0.36425733  0.83120924    -0.57720
O269        O  0.30358194  0.44597223  0.82506284    -0.47810
O270        O  0.33860660  0.40957782  0.84969990    -0.54150
C271        C  0.41356807  0.48766746  0.82286261     0.85910
O272        O  0.33913418  0.44016861  0.79037824    -0.56040
O273        O  0.27125382  0.38396898  0.81716722    -0.59340
In274      In  0.05472909  0.40897391  0.82036042     1.36870
C275        C  0.12144041  0.40891343  0.82105760     0.78360
O276        O  0.05494035  0.40405007  0.85150728    -0.60090
O277        O  0.00878104  0.35185038  0.83648022    -0.51000
C278        C  0.04968672  0.47216225  0.82491662     0.71020
O279        O  0.08239533  0.47397320  0.82638166    -0.45860
C280        C  0.04315744  0.39737930  0.78334118     0.75730
O281        O  0.12186858  0.44049454  0.82365621    -0.57720
O282        O  0.01453463  0.37435100  0.79471288    -0.47810
O283        O  0.08654287  0.37710861  0.81803056    -0.54150
C284        C  0.02588167  0.36733858  0.85213359     0.85910
O285        O  0.01850777  0.43718216  0.82131649    -0.56040
O286        O  0.07536913  0.42549958  0.79111626    -0.59340
In287      In  0.77681472  0.02696792  0.93321576     1.36870
C288        C  0.76044519  0.02402824  0.96968186     0.78360
O289        O  0.74064549  0.95859544  0.93253948    -0.60090
O290        O  0.80477401  0.99202537  0.92825283    -0.51000
C291        C  0.74049625  0.03112559  0.90260198     0.71020
O292        O  0.72628440  0.02794130  0.91890745    -0.45860
C293        C  0.84400442  0.10099624  0.93207713     0.75730
O294        O  0.73512338  0.01893454  0.95726267    -0.57720
O295        O  0.84389580  0.06996839  0.92856121    -0.47810
O296        O  0.79310089  0.02993890  0.96346822    -0.54150
C297        C  0.77164337  0.95782526  0.92971507     0.85910
O298        O  0.77222558  0.03110988  0.90196241    -0.56040
O299        O  0.80976576  0.09442444  0.93605488    -0.59340
In300      In  0.02653603  0.27813239  0.93191971     1.36870
C301        C  0.03382943  0.29926478  0.96801973     0.78360
O302        O  0.95862545  0.24408591  0.93573804    -0.60090
O303        O  0.98411832  0.21133676  0.92760665    -0.51000
C304        C  0.01950670  0.31189318  0.90104517     0.71020
O305        O  0.02016569  0.32483822  0.91734595    -0.45860
C306        C  0.09545816  0.28196511  0.92807792     0.75730
O307        O  0.04069573  0.32384232  0.95496676    -0.57720
O308        O  0.06080808  0.24907990  0.92803415    -0.47810
O309        O  0.02342478  0.26469014  0.96261836    -0.54150
C310        C  0.95262144  0.21039291  0.93161738     0.85910
O311        O  0.02342171  0.28271731  0.90052961    -0.56040
O312        O  0.09522212  0.31333011  0.92966790    -0.59340
In313      In  0.78308247  0.79922449  0.05785701     1.36870
C314        C  0.84689281  0.79372318  0.05874266     0.78360
O315        O  0.78081069  0.79393273  0.08913226    -0.60090
O316        O  0.72972702  0.74774991  0.07342261    -0.51000
C317        C  0.78121101  0.86441500  0.06119690     0.71020
O318        O  0.81391145  0.86610104  0.06206350    -0.45860
C319        C  0.76078266  0.77811488  0.02240908     0.75730
O320        O  0.85053532  0.82716657  0.05977611    -0.57720
O321        O  0.73895954  0.75571111  0.03585101    -0.47810
O322        O  0.81079555  0.76308385  0.05733173    -0.54150
C323        C  0.74613222  0.76105947  0.08931204     0.85910
O324        O  0.74943679  0.82955962  0.05855855    -0.56040
O325        O  0.79309601  0.81097383  0.02709852    -0.59340
In326      In  0.01707831  0.79481991  0.05405416     1.36870
C327        C  0.01137230  0.77503602  0.01788862     0.78360
O328        O  0.94836482  0.75953424  0.05574280    -0.60090
O329        O  0.98273985  0.82372135  0.05803783    -0.51000
C330        C  0.02288372  0.76100368  0.08514972     0.71020
O331        O  0.02100263  0.74694980  0.06896810    -0.45860
C332        C  0.09143116  0.86174035  0.05456265     0.75730
O333        O  0.00501991  0.75029867  0.03077661    -0.57720
O334        O  0.06017903  0.86153781  0.05817538    -0.47810
O335        O  0.02027664  0.80898874  0.02349497    -0.54150
C336        C  0.94810035  0.79083991  0.05758490     0.85910
O337        O  0.02072357  0.79128087  0.08542940    -0.56040
O338        O  0.08493160  0.82772718  0.05071726    -0.59340
In339      In  0.26799486  0.04420839  0.05381000     1.36870
C340        C  0.28623647  0.04904402  0.01748492     0.78360
O341        O  0.23480918  0.97685827  0.05034337    -0.60090
O342        O  0.20102907  0.00126475  0.05860628    -0.51000
C343        C  0.30352605  0.03893799  0.08447741     0.71020
O344        O  0.31697332  0.04066367  0.06814451    -0.45860
C345        C  0.27201233  0.11280454  0.05708150     0.75730
O346        O  0.31176870  0.05570950  0.03011688    -0.57720
O347        O  0.23901112  0.07839489  0.05812376    -0.47810
O348        O  0.25228890  0.04028802  0.02342291    -0.54150
C349        C  0.20070647  0.97030525  0.05462100     0.85910
O350        O  0.27303562  0.04105731  0.08512434    -0.56040
O351        O  0.30344913  0.11250745  0.05490199    -0.59340
In352      In  0.26703316  0.27878875  0.05516236     1.36870
C353        C  0.27043217  0.21418153  0.05690550     0.78360
O354        O  0.25245302  0.26651172  0.02472639    -0.60090
O355        O  0.30958200  0.32017935  0.03217887    -0.51000
C356        C  0.20456923  0.28561603  0.05861412     0.71020
O357        O  0.20045525  0.25192445  0.05960951    -0.45860
C358        C  0.30609673  0.31546090  0.08647122     0.75730
O359        O  0.23728992  0.21163861  0.05814450    -0.57720
O360        O  0.32069401  0.33053859  0.07049060    -0.47810
O361        O  0.30176025  0.24954965  0.05479394    -0.54150
C362        C  0.28542133  0.29781623  0.01927153     0.85910
O363        O  0.24042949  0.31577441  0.05574767    -0.56040
O364        O  0.27170812  0.28225268  0.08640174    -0.59340
In365      In  0.98806353  0.66563213  0.16645382     1.36870
C366        C  0.92066991  0.66477746  0.16674069     0.78360
O367        O  0.97389316  0.64442715  0.19579245    -0.60090
O368        O  0.02800421  0.70299562  0.19161118    -0.51000
C369        C  0.99507129  0.60399905  0.16086514     0.71020
O370        O  0.96161490  0.60096732  0.16025698    -0.45860
C371        C  0.01586329  0.70646135  0.13445269     0.75730
O372        O  0.92063486  0.63360583  0.16362674    -0.57720
O373        O  0.03402389  0.72202045  0.14991153    -0.47810
O374        O  0.95534421  0.69639534  0.17027360    -0.54150
C375        C  0.00449998  0.67528726  0.20319842     0.85910
O376        O  0.02596852  0.63949780  0.16391944    -0.56040
O377        O  0.98600933  0.67013538  0.13538208    -0.59340
In378      In  0.70352632  0.65562264  0.16770340     1.36870
C379        C  0.70994131  0.69746504  0.13752370     0.78360
O380        O  0.77190628  0.69127092  0.16767782    -0.60090
O381        O  0.73839341  0.62803464  0.16197287    -0.51000
C382        C  0.70855988  0.67633940  0.20355625     0.71020
O383        O  0.69065431  0.68476175  0.19168300    -0.45860
C384        C  0.63140004  0.58487039  0.16679048     0.75730
O385        O  0.71524456  0.71191230  0.15386780    -0.57720
O386        O  0.66489040  0.58811489  0.16602276    -0.47810
O387        O  0.70010065  0.66156050  0.13667560    -0.54150
C388        C  0.77292005  0.66072514  0.16434440     0.85910
O389        O  0.72261375  0.65728987  0.19701074    -0.56040
O390        O  0.63470669  0.61813739  0.16812155    -0.59340
In391      In  0.39773047  0.07151099  0.16626832     1.36870
C392        C  0.39915159  0.13875175  0.16771426     0.78360
O393        O  0.39392500  0.07710572  0.13534369    -0.60090
O394        O  0.34347796  0.02496572  0.14858566    -0.51000
C395        C  0.46065994  0.06591818  0.16047698     0.71020
O396        O  0.46304932  0.09880874  0.15986881    -0.45860
C397        C  0.38306913  0.05020677  0.20246728     0.75730
O398        O  0.43089836  0.13889789  0.16580157    -0.57720
O399        O  0.35520566  0.03165638  0.19021459    -0.47810
O400        O  0.36669987  0.10404741  0.16976274    -0.54150
C401        C  0.35866396  0.04551345  0.13365379     0.85910
O402        O  0.42519687  0.03489102  0.16366528    -0.56040
O403        O  0.41698888  0.07845938  0.19600837    -0.59340
In404      In  0.40952592  0.35495345  0.16545223     1.36870
C405        C  0.36864584  0.34970419  0.13507019     0.78360
O406        O  0.44375465  0.42296362  0.16734746    -0.60090
O407        O  0.47669294  0.39668152  0.16153510    -0.51000
C408        C  0.39390497  0.34998236  0.20185891     0.71020
O409        O  0.37410371  0.35665036  0.19023662    -0.45860
C410        C  0.40354600  0.28547648  0.16319977     0.75730
O411        O  0.35472937  0.34723929  0.15137271    -0.57720
O412        O  0.43636401  0.31942700  0.16015926    -0.47810
O413        O  0.40345377  0.35590090  0.13439457    -0.54150
C414        C  0.47802299  0.42858088  0.16441055     0.85910
O415        O  0.42113367  0.34699576  0.19468227    -0.56040
O416        O  0.37301944  0.28691899  0.16643172    -0.59340
In417      In  0.78075202  0.79515148  0.42985092     1.36870
C418        C  0.84503895  0.79045738  0.42869702     0.78360
O419        O  0.79253312  0.80881910  0.46035747    -0.60090
O420        O  0.73783363  0.75298290  0.45255373    -0.51000
C421        C  0.77619534  0.85869938  0.42655063     0.71020
O422        O  0.80957119  0.86167121  0.42557740    -0.45860
C423        C  0.74403080  0.75671402  0.39842463     0.75730
O424        O  0.84820828  0.82362908  0.42720996    -0.57720
O425        O  0.72830214  0.74249649  0.41435221    -0.47810
O426        O  0.80916835  0.75969365  0.43068917    -0.54150
C427        C  0.76040851  0.77638826  0.46560549     0.85910
O428        O  0.74514163  0.82338481  0.42922215    -0.56040
O429        O  0.77791358  0.79044126  0.39859308    -0.59340
In430      In  0.77735815  0.02779805  0.42534636     1.36870
C431        C  0.76062286  0.02556083  0.46180748     0.78360
O432        O  0.74276774  0.95974885  0.42687775    -0.60090
O433        O  0.80642746  0.99363102  0.42119516    -0.51000
C434        C  0.73397783  0.02432704  0.39580792     0.71020
O435        O  0.72595762  0.02893054  0.41239276    -0.45860
C436        C  0.84525558  0.10211865  0.42171958     0.75730
O437        O  0.73523245  0.01935541  0.44922867    -0.57720
O438        O  0.84399412  0.07047685  0.41824447    -0.47810
O439        O  0.79405642  0.03302059  0.45578246    -0.54150
C440        C  0.77392737  0.95939611  0.42388570     0.85910
O441        O  0.76351832  0.02082714  0.39430985    -0.56040
O442        O  0.81172708  0.09609003  0.42670394    -0.59340
In443      In  0.02966212  0.27964790  0.42419096     1.36870
C444        C  0.03446939  0.29811180  0.46051372     0.78360
O445        O  0.96095649  0.24477054  0.42668562    -0.60090
O446        O  0.98673438  0.21367752  0.41672288    -0.51000
C447        C  0.03290186  0.32249925  0.39462193     0.71020
O448        O  0.02690025  0.32961642  0.41112858    -0.45860
C449        C  0.09823332  0.28269012  0.42277143     0.75730
O450        O  0.03983298  0.32269524  0.44777609    -0.57720
O451        O  0.06364434  0.25027841  0.42052610    -0.47810
O452        O  0.02618977  0.26447614  0.45471714    -0.54150
C453        C  0.95493579  0.21181721  0.42112448     0.85910
O454        O  0.03760063  0.29391402  0.39319461    -0.56040
O455        O  0.09812121  0.31391915  0.42520862    -0.59340
In456      In  0.26403299  0.27685706  0.42877014     1.36870
C457        C  0.26842322  0.21280495  0.42748359     0.78360
O458        O  0.26763413  0.27912388  0.39745281    -0.60090
O459        O  0.31517180  0.32976080  0.41284946    -0.51000
C460        C  0.19966513  0.28071999  0.42585787     0.71020
O461        O  0.19699663  0.24777423  0.42460915    -0.45860
C462        C  0.28554084  0.29806161  0.46428612     0.75730
O463        O  0.23493388  0.20967092  0.42704014    -0.57720
O464        O  0.30888356  0.31916393  0.45091183    -0.47810
O465        O  0.29967309  0.24852736  0.42844747    -0.54150
C466        C  0.30066141  0.31360894  0.39702769     0.85910
O467        O  0.23504453  0.31165359  0.42876871    -0.56040
O468        O  0.25167745  0.26703051  0.45948383    -0.59340
In469      In  0.70257249  0.65477992  0.31888559     1.36870
C470        C  0.70865305  0.69521639  0.34957593     0.78360
O471        O  0.63412763  0.61816153  0.31570505    -0.60090
O472        O  0.66222082  0.58816736  0.32383075    -0.51000
C473        C  0.70847267  0.67645797  0.28315772     0.71020
O474        O  0.69159368  0.68588283  0.29514945    -0.45860
C475        C  0.77117924  0.65806592  0.32130993     0.75730
O476        O  0.71514755  0.71081906  0.33342937    -0.57720
O477        O  0.73629922  0.62515038  0.32116234    -0.47810
O478        O  0.69788206  0.65899013  0.34994353    -0.54150
C479        C  0.62953235  0.58519212  0.32011961     0.85910
O480        O  0.72121720  0.65611171  0.28953636    -0.56040
O481        O  0.77087458  0.68957435  0.32081596    -0.59340
In482      In  0.98551919  0.66146411  0.32093481     1.36870
C483        C  0.91847930  0.66119971  0.31981123     0.78360
O484        O  0.98183173  0.66566102  0.35196814    -0.60090
O485        O  0.03199735  0.71672793  0.33794142    -0.51000
C486        C  0.99132722  0.59904727  0.32652231     0.71020
O487        O  0.95818765  0.59661610  0.32726728    -0.45860
C488        C  0.00352083  0.67288203  0.28433241     0.75730
O489        O  0.91787506  0.62948875  0.32209342    -0.57720
O490        O  0.02623962  0.70021227  0.29621984    -0.47810
O491        O  0.95361911  0.69316829  0.31764202    -0.54150
C492        C  0.01271495  0.70142275  0.35319427     0.85910
O493        O  0.02251371  0.63434851  0.32344068    -0.56040
O494        O  0.97305504  0.64137333  0.29139800    -0.59340
In495      In  0.67912862  0.08205573  0.32096247     1.36870
C496        C  0.75191410  0.15272182  0.32145313     0.78360
O497        O  0.68634735  0.07656877  0.35174331    -0.60090
O498        O  0.68364268  0.03261995  0.33362185    -0.51000
C499        C  0.60814157  0.07348079  0.32594210     0.71020
O500        O  0.64224842  0.10708439  0.32621875    -0.45860
C501        C  0.67070129  0.06756095  0.28410275     0.75730
O502        O  0.71985165  0.14830414  0.32768714    -0.57720
O503        O  0.67647167  0.04637120  0.29518207    -0.47810
O504        O  0.74687591  0.12066225  0.31508992    -0.54150
C505        C  0.68851448  0.04642685  0.35013196     0.85910
O506        O  0.61013989  0.04305887  0.32425416    -0.56040
O507        O  0.66932866  0.09496614  0.29203257    -0.59340
In508      In  0.39620078  0.07375147  0.31905874     1.36870
C509        C  0.39719904  0.14079869  0.31783376     0.78360
O510        O  0.41549325  0.07963803  0.28942480    -0.60090
O511        O  0.35368507  0.03308272  0.29517967    -0.51000
C512        C  0.46014448  0.06956513  0.32389350     0.71020
O513        O  0.46252845  0.10230014  0.32204990    -0.45860
C514        C  0.35795615  0.04796298  0.35185599     0.75730
O515        O  0.42854024  0.14086719  0.32105514    -0.57720
O516        O  0.34255569  0.02726392  0.33697475    -0.47810
O517        O  0.36534018  0.10626961  0.31452799    -0.54150
C518        C  0.38174013  0.05118083  0.28297925     0.85910
O519        O  0.42410945  0.03798870  0.32390090    -0.56040
O520        O  0.39306075  0.07976960  0.35002266    -0.59340
In521      In  0.97742293  0.38138729  0.32045346     1.36870
C522        C  0.90678356  0.30867824  0.32087084     0.78360
O523        O  0.96052044  0.38605533  0.29142471    -0.60090
O524        O  0.01609253  0.39030337  0.29471043    -0.51000
C525        C  0.98724865  0.45217311  0.32677854     0.71020
O526        O  0.95368142  0.41836930  0.32866431    -0.45860
C527        C  0.01277785  0.37004686  0.34918782     0.75730
O528        O  0.91017539  0.34066194  0.32610900    -0.57720
O529        O  0.02442697  0.37193417  0.33243656    -0.47810
O530        O  0.93971876  0.31390705  0.31536717    -0.54150
C531        C  0.99134324  0.39062803  0.28355623     0.85910
O532        O  0.01686750  0.44990675  0.32243519    -0.56040
O533        O  0.98524869  0.37634843  0.35122461    -0.59340
In534      In  0.40652561  0.35657099  0.31890129     1.36870
C535        C  0.36333646  0.35009286  0.34859311     0.78360
O536        O  0.37035480  0.28853313  0.31814218    -0.60090
O537        O  0.43392045  0.32145352  0.32391712    -0.51000
C538        C  0.39291603  0.35156788  0.28231203     0.71020
O539        O  0.37235179  0.35805184  0.29353384    -0.45860
C540        C  0.47474672  0.43022534  0.32114005     0.75730
O541        O  0.35056555  0.34820813  0.33208689    -0.57720
O542        O  0.47258338  0.39842153  0.32543650    -0.47810
O543        O  0.39819542  0.35657554  0.34979468    -0.54150
C544        C  0.40107976  0.28734161  0.32120674     0.85910
O545        O  0.42011830  0.34911613  0.28994608    -0.56040
O546        O  0.44132434  0.42453477  0.31608866    -0.59340
In547      In  0.01606749  0.79282080  0.43296663     1.36870
C548        C  0.01130368  0.77445867  0.46928023     0.78360
O549        O  0.08407607  0.82626436  0.43608797    -0.60090
O550        O  0.05890482  0.85940383  0.42813045    -0.51000
C551        C  0.02088287  0.75729860  0.40226445     0.71020
O552        O  0.01969885  0.74424324  0.41860509    -0.45860
C553        C  0.94680511  0.78843038  0.42957275     0.75730
O554        O  0.00492442  0.74933916  0.45659065    -0.57720
O555        O  0.98137956  0.82133005  0.42873513    -0.47810
O556        O  0.01974369  0.80808025  0.46341024    -0.54150
C557        C  0.09033698  0.86001820  0.43186877     0.85910
O558        O  0.01863051  0.78750522  0.40163868    -0.56040
O559        O  0.94726845  0.75730172  0.43172531    -0.59340
In560      In  0.26645288  0.04320521  0.43211115     1.36870
C561        C  0.28512795  0.04820941  0.46841151     0.78360
O562        O  0.30180057  0.11147769  0.43100488    -0.60090
O563        O  0.23743747  0.07727517  0.42746097    -0.51000
C564        C  0.30245154  0.03921094  0.40130177     0.71020
O565        O  0.31640469  0.04157211  0.41758335    -0.45860
C566        C  0.19934406  0.96901215  0.43143281     0.75730
O567        O  0.30999812  0.05353138  0.45570182    -0.57720
O568        O  0.19930430  0.99990499  0.42780761    -0.47810
O569        O  0.25158793  0.04073191  0.46256940    -0.54150
C570        C  0.27040605  0.11171182  0.42852330     0.85910
O571        O  0.27100061  0.03972533  0.40078619    -0.56040
O572        O  0.23371598  0.97576817  0.43528118    -0.59340
In573      In  0.03624888  0.28745531  0.06123932     1.36870
C574        C  0.03761734  0.30292751  0.02465657     0.78360
O575        O  0.10465937  0.32146812  0.05889026    -0.60090
O576        O  0.07060320  0.25870016  0.06561489    -0.51000
C577        C  0.04012832  0.33091201  0.09077207     0.71020
O578        O  0.03446400  0.33818976  0.07422927    -0.45860
C579        C  0.96188525  0.21955245  0.06507797     0.75730
O580        O  0.04453105  0.32871179  0.03706318    -0.57720
O581        O  0.99404389  0.22137827  0.06855331    -0.47810
O582        O  0.02988226  0.26981381  0.03092194    -0.54150
C583        C  0.10495442  0.29060076  0.06224582     0.85910
O584        O  0.04454660  0.30215091  0.09221393    -0.56040
O585        O  0.96738641  0.25260423  0.06007629    -0.59340
In586      In  0.78485070  0.03488518  0.06245075     1.36870
C587        C  0.76528803  0.02945117  0.02624612     0.78360
O588        O  0.81924935  0.10298017  0.05977209    -0.60090
O589        O  0.85126793  0.07820949  0.06985810    -0.51000
C590        C  0.74244522  0.03248110  0.09210011     0.71020
O591        O  0.73464861  0.03762819  0.07556933    -0.45860
C592        C  0.78164367  0.96663884  0.06407782     0.75730
O593        O  0.74073777  0.02392659  0.03912770    -0.57720
O594        O  0.81455577  0.00104243  0.06564109    -0.47810
O595        O  0.79950389  0.03824381  0.03183589    -0.54150
C596        C  0.85260160  0.10950175  0.06541902     0.85910
O597        O  0.77143406  0.02810633  0.09351191    -0.56040
O598        O  0.75013838  0.96685080  0.06218827    -0.59340
In599      In  0.98245831  0.38702827  0.16535367     1.36870
C600        C  0.91140323  0.31458805  0.16530147     0.78360
O601        O  0.98954383  0.38115064  0.13456359    -0.60090
O602        O  0.03079633  0.37964509  0.15313779    -0.51000
C603        C  0.99275618  0.45811860  0.15936192     0.71020
O604        O  0.95958277  0.42439578  0.15657236    -0.45860
C605        C  0.99465936  0.39445739  0.20239642     0.75730
O606        O  0.91484446  0.34678685  0.16042638    -0.57720
O607        O  0.01927978  0.39334739  0.19146301    -0.47810
O608        O  0.94458606  0.31938345  0.17000631    -0.54150
C609        C  0.01835987  0.37667763  0.13644745     0.85910
O610        O  0.02197395  0.45571030  0.16435168    -0.56040
O611        O  0.96515429  0.39200391  0.19421147    -0.59340
In612      In  0.68350045  0.08766210  0.16652771     1.36870
C613        C  0.75557682  0.15932028  0.16679220     0.78360
O614        O  0.67378356  0.10023392  0.19563309    -0.60090
O615        O  0.67972622  0.05091788  0.19192532    -0.51000
C616        C  0.61064207  0.07421711  0.15987450     0.71020
O617        O  0.64391766  0.10793721  0.15718034    -0.45860
C618        C  0.69552382  0.05350498  0.13758385     0.75730
O619        O  0.72256989  0.15529937  0.16252856    -0.57720
O620        O  0.69192208  0.04055971  0.15418004    -0.47810
O621        O  0.75161787  0.12662416  0.17113789    -0.54150
C622        C  0.67412113  0.07187617  0.20322743     0.85910
O623        O  0.61454884  0.04633099  0.16519878    -0.56040
O624        O  0.69085556  0.08202207  0.13576547    -0.59340
C625        C  0.86937604  0.23936237  0.17053644    -0.12570
C626        C  0.87168860  0.27474641  0.16562756     0.09580
C627        C  0.83554805  0.27185889  0.16121086    -0.12570
C628        C  0.79786325  0.23438861  0.16167880    -0.12570
C629        C  0.79550324  0.19898127  0.16655445     0.09580
C630        C  0.83163835  0.20182514  0.17098112    -0.12570
H631        H  0.89673847  0.24069480  0.17402295     0.13560
H632        H  0.83637308  0.29862648  0.15742793     0.13560
H633        H  0.77054528  0.23313281  0.15819422     0.13560
H634        H  0.83074302  0.17501742  0.17475936     0.13560
C635        C  0.70691732  0.03917340  0.12189974    -0.12500
C636        C  0.72118976  0.03345453  0.10825581    -0.14060
C637        C  0.88976258  0.14948573  0.06624924    -0.12500
C638        C  0.92208826  0.18212817  0.06616677    -0.14060
C639        C  0.03936731  0.35223280  0.10694623    -0.12500
C640        C  0.03342019  0.36607442  0.12069525    -0.14060
C641        C  0.16259826  0.92913063  0.43140065    -0.12500
C642        C  0.13026619  0.89680208  0.43154006    -0.14060
C643        C  0.02510221  0.39174391  0.25303790    -0.12570
C644        C  0.99655306  0.39550963  0.26290280     0.09580
C645        C  0.97043579  0.40212317  0.25273516    -0.12570
C646        C  0.97132945  0.40317152  0.23318568    -0.12570
C647        C  0.99831177  0.39755177  0.22315024     0.09580
C648        C  0.02594868  0.39271557  0.23320547    -0.12570
H649        H  0.04568350  0.38675686  0.26058871     0.13560
H650        H  0.94846703  0.40566673  0.25990058     0.13560
H651        H  0.94997519  0.40744307  0.22589910     0.13560
H652        H  0.04714712  0.38843194  0.22577501     0.13560
C653        C  0.33674307  0.03832656  0.36954389    -0.12500
C654        C  0.32109875  0.03684368  0.38440453    -0.14060
C655        C  0.43448474  0.21543249  0.32224071    -0.12570
C656        C  0.39782591  0.17808888  0.31843859     0.09580
C657        C  0.36186000  0.17667219  0.31591214    -0.12570
C658        C  0.36263189  0.21211905  0.31711927    -0.12570
C659        C  0.39938892  0.24946475  0.32089322     0.09580
C660        C  0.43525138  0.25075959  0.32345175    -0.12570
H661        H  0.46261708  0.21735727  0.32431538     0.13560
H662        H  0.33313289  0.14816167  0.31305833     0.13560
H663        H  0.33460701  0.21037144  0.31498023     0.13560
H664        H  0.46407082  0.27920431  0.32625806     0.13560
C665        C  0.65217930  0.08247499  0.25349958    -0.12570
C666        C  0.66663963  0.06255190  0.26344594     0.09580
C667        C  0.67990680  0.04162310  0.25334526    -0.12570
C668        C  0.68087671  0.04283809  0.23353058    -0.12570
C669        C  0.66867279  0.06505994  0.22375808     0.09580
C670        C  0.65323905  0.08376206  0.23394895    -0.12570
H671        H  0.64120457  0.09836643  0.26087427     0.13560
H672        H  0.69113774  0.02597997  0.26072697     0.13560
H673        H  0.69275214  0.02802096  0.22593378     0.13560
H674        H  0.64299346  0.10053020  0.22680271     0.13560
C675        C  0.82735652  0.19580467  0.31531032    -0.12570
C676        C  0.79180256  0.19233256  0.32149663     0.09580
C677        C  0.79447626  0.22728653  0.32756279    -0.12570
C678        C  0.83185892  0.26499145  0.32736987    -0.12570
C679        C  0.86741514  0.26856531  0.32114626     0.09580
C680        C  0.86485774  0.23359482  0.31515998    -0.12570
H681        H  0.82616178  0.16933824  0.31056334     0.13560
H682        H  0.76757233  0.22554704  0.33236935     0.13560
H683        H  0.83289573  0.29140515  0.33205961     0.13560
H684        H  0.89180629  0.23547589  0.31030641     0.13560
C685        C  0.57108572  0.10679525  0.32359115    -0.12570
C686        C  0.56957905  0.07118257  0.32651362     0.09580
C687        C  0.53140500  0.03433615  0.32892378    -0.12570
C688        C  0.49538403  0.03340510  0.32838875    -0.12570
C689        C  0.49721957  0.06925934  0.32532957     0.09580
C690        C  0.53545693  0.10584611  0.32296816    -0.12570
H691        H  0.59997155  0.13557443  0.32141520     0.13560
H692        H  0.52944981  0.00641565  0.33109114     0.13560
H693        H  0.46620161  0.00473859  0.33018569     0.13560
H694        H  0.53792713  0.13391723  0.32039909     0.13560
C695        C  0.02260430  0.72329687  0.37065666    -0.12500
C696        C  0.02384648  0.73899135  0.38542810    -0.14060
C697        C  0.02806599  0.56410166  0.32476157    -0.12570
C698        C  0.99244518  0.56275612  0.32848305     0.09580
C699        C  0.95636621  0.52540595  0.33295752    -0.12570
C700        C  0.95540753  0.48993122  0.33308300    -0.12570
C701        C  0.99046191  0.49082058  0.32869128     0.09580
C702        C  0.02707359  0.52833692  0.32483542    -0.12570
H703        H  0.05629112  0.59254183  0.32122171     0.13560
H704        H  0.92845354  0.52338624  0.33592691     0.13560
H705        H  0.92673191  0.46151363  0.33611422     0.13560
H706        H  0.05451697  0.52984845  0.32134820     0.13560
C707        C  0.80714968  0.62307867  0.32192929    -0.12570
C708        C  0.80910470  0.65931783  0.32136155     0.09580
C709        C  0.84737874  0.69638182  0.32010119    -0.12570
C710        C  0.88308300  0.69709396  0.31940350    -0.12570
C711        C  0.88102666  0.66077580  0.32001440     0.09580
C712        C  0.84276007  0.62379840  0.32130175    -0.12570
H713        H  0.77801132  0.59406227  0.32279436     0.13560
H714        H  0.84968004  0.72473891  0.31953019     0.13560
H715        H  0.91229289  0.72604640  0.31847768     0.13560
H716        H  0.84032539  0.59537377  0.32180906     0.13560
C717        C  0.58714952  0.51095384  0.32613999    -0.12570
C718        C  0.58944482  0.54609943  0.32087678     0.09580
C719        C  0.55341513  0.54324388  0.31621287    -0.12570
C720        C  0.51576107  0.50562732  0.31655634    -0.12570
C721        C  0.51369173  0.47044530  0.32161026     0.09580
C722        C  0.54969251  0.47355679  0.32651964    -0.12570
H723        H  0.61441270  0.51227196  0.32983629     0.13560
H724        H  0.55440789  0.56996067  0.31213236     0.13560
H725        H  0.48840887  0.50398595  0.31268454     0.13560
H726        H  0.54902232  0.44693471  0.33044005     0.13560
C727        C  0.27165518  0.14837485  0.42741359    -0.12500
C728        C  0.27075658  0.17812565  0.42715042    -0.14060
C729        C  0.33938248  0.34281771  0.36503349    -0.12500
C730        C  0.32111807  0.33193197  0.37969833    -0.14060
C731        C  0.13491359  0.28358112  0.42309098    -0.12500
C732        C  0.16482505  0.28280263  0.42414670    -0.14060
C733        C  0.03249607  0.34404261  0.37849131    -0.12500
C734        C  0.02713836  0.35853214  0.36483957    -0.14060
C735        C  0.88253085  0.14196806  0.42057954    -0.12500
C736        C  0.91499724  0.17447924  0.42039625    -0.14060
C737        C  0.71256285  0.02520827  0.37966943    -0.12500
C738        C  0.69873420  0.03126417  0.36594107    -0.14060
C739        C  0.87984988  0.78795678  0.42835684    -0.12500
C740        C  0.90977140  0.78699703  0.42856393    -0.14060
C741        C  0.77381215  0.89317843  0.42491024    -0.12500
C742        C  0.77292269  0.92286500  0.42403619    -0.14060
C743        C  0.71551961  0.71750158  0.36651240    -0.12500
C744        C  0.72595432  0.73542169  0.38124119    -0.14060
C745        C  0.40404729  0.32872631  0.23260304    -0.12570
C746        C  0.38716865  0.34589185  0.22231132     0.09580
C747        C  0.36744069  0.36114440  0.23190256    -0.12570
C748        C  0.36725782  0.36159809  0.25170325    -0.12570
C749        C  0.38683844  0.34683408  0.26182950     0.09580
C750        C  0.40390374  0.32921086  0.25208217    -0.12570
H751        H  0.41870750  0.31599530  0.22557705     0.13560
H752        H  0.35400165  0.37429314  0.22417046     0.13560
H753        H  0.35364303  0.37505266  0.25901555     0.13560
H754        H  0.41842038  0.31680596  0.25953528     0.13560
C755        C  0.34174859  0.02827840  0.23264024    -0.12570
C756        C  0.37808224  0.04119826  0.22287796     0.09580
C757        C  0.41273759  0.05106883  0.23316086    -0.12570
C758        C  0.41235663  0.05120627  0.25273740    -0.12570
C759        C  0.37732802  0.04153657  0.26264014     0.09580
C760        C  0.34137454  0.02846349  0.25251474    -0.12570
H761        H  0.31465623  0.02069115  0.22498152     0.13560
H762        H  0.44097746  0.06065158  0.22601191     0.13560
H763        H  0.44033341  0.06091288  0.26017603     0.13560
H764        H  0.31401955  0.02105227  0.25986643     0.12600
C765        C  0.49778399  0.03174445  0.16433007    -0.12570
C766        C  0.49721345  0.06494525  0.15819888     0.09580
C767        C  0.53323741  0.09928809  0.15110536    -0.12570
C768        C  0.56952006  0.10125901  0.15087758    -0.12570
C769        C  0.57076369  0.06901419  0.15781387     0.09580
C770        C  0.53437360  0.03379699  0.16418219    -0.12570
H771        H  0.47039984  0.00494825  0.16994324     0.13560
H772        H  0.53365094  0.12521660  0.14617863     0.13560
H773        H  0.59700023  0.12872128  0.14581443     0.13560
H774        H  0.53452703  0.00855227  0.16968160     0.13560
C775        C  0.36382749  0.17471470  0.16870889    -0.12570
C776        C  0.39994437  0.17612339  0.16693025     0.09580
C777        C  0.43686850  0.21348216  0.16353625    -0.12570
C778        C  0.43773451  0.24881738  0.16194686    -0.12570
C779        C  0.40173142  0.24753967  0.16377655     0.09580
C780        C  0.36472145  0.21018981  0.16718959    -0.12570
H781        H  0.33488758  0.14618552  0.17122767     0.13560
H782        H  0.46510817  0.21539186  0.16200917     0.13560
H783        H  0.46674964  0.27727046  0.15945791     0.13560
H784        H  0.33657813  0.20845262  0.16877487     0.13560
C785        C  0.74448433  0.68865557  0.23362612    -0.12570
C786        C  0.71280108  0.68651976  0.22364931     0.09580
C787        C  0.68323415  0.68863640  0.23346342    -0.12570
C788        C  0.68328621  0.68879480  0.25323949    -0.12570
C789        C  0.71290142  0.68683070  0.26309300     0.09580
C790        C  0.74452476  0.68879618  0.25315123    -0.12570
H791        H  0.76802174  0.68779210  0.22631911     0.13560
H792        H  0.65858942  0.68709016  0.22595081     0.13560
H793        H  0.65864835  0.68730179  0.26073038     0.13560
H794        H  0.76804598  0.68797258  0.26049966     0.13560
C795        C  0.59097411  0.50961145  0.16489832    -0.12570
C796        C  0.59183679  0.54521767  0.16610150     0.09580
C797        C  0.55482764  0.54238437  0.16655767    -0.12570
C798        C  0.51756364  0.50444085  0.16590131    -0.12570
C799        C  0.51686296  0.46888739  0.16468135     0.09580
C800        C  0.55389634  0.47186890  0.16415646    -0.12570
H801        H  0.61902436  0.51088891  0.16454929     0.13560
H802        H  0.55470608  0.56943367  0.16745575     0.13560
H803        H  0.48937666  0.50289671  0.16634755     0.13560
H804        H  0.55424782  0.44493692  0.16333675     0.13560
C805        C  0.96123003  0.53087982  0.15363711    -0.12570
C806        C  0.99682303  0.56812591  0.15868061     0.09580
C807        C  0.03248154  0.56969457  0.16264560    -0.12570
C808        C  0.03193771  0.53416705  0.16225286    -0.12570
C809        C  0.99577200  0.49671829  0.15778368     0.09580
C810        C  0.96074378  0.49568872  0.15315239    -0.12570
H811        H  0.93331435  0.52870203  0.15045703     0.13560
H812        H  0.06033722  0.59807405  0.16662290     0.13560
H813        H  0.05934156  0.53577386  0.16594857     0.13560
H814        H  0.93239163  0.46732728  0.14967111     0.13560
C815        C  0.98950719  0.64021159  0.23376244    -0.12570
C816        C  0.01063303  0.67697120  0.22385710     0.09580
C817        C  0.03378094  0.71346842  0.23406073    -0.12570
C818        C  0.03356073  0.71287164  0.25395563    -0.12570
C819        C  0.01022494  0.67577392  0.26369203     0.09580
C820        C  0.98932191  0.63962207  0.25331047    -0.12570
H821        H  0.97190639  0.61154632  0.22635325     0.13560
H822        H  0.05037855  0.74225970  0.22673024     0.13560
H823        H  0.04997615  0.74121541  0.26165485     0.13560
H824        H  0.97156185  0.61051752  0.26034304     0.13560
C825        C  0.88427871  0.69945742  0.16956854    -0.12570
C826        C  0.88314996  0.66420550  0.16596621     0.09580
C827        C  0.84583253  0.62828944  0.16123809    -0.12570
C828        C  0.81018271  0.62747688  0.16031672    -0.12570
C829        C  0.81115600  0.66255993  0.16408800     0.09580
C830        C  0.84854262  0.69864551  0.16864145    -0.12570
H831        H  0.91274675  0.72760444  0.17317991     0.13560
H832        H  0.84414952  0.60073985  0.15830033     0.13560
H833        H  0.78172895  0.59921180  0.15684098     0.13560
H834        H  0.85005709  0.72605973  0.17172516     0.13560
C835        C  0.17074261  0.28931807  0.06051452    -0.12500
C836        C  0.14144878  0.29112999  0.06170628    -0.14060
C837        C  0.32769795  0.33340872  0.10362074    -0.12500
C838        C  0.34590458  0.34349771  0.11830767    -0.14060
C839        C  0.27236576  0.17927197  0.05767247    -0.12500
C840        C  0.27322745  0.14949035  0.05781308    -0.14060
C841        C  0.32165978  0.03544126  0.10128554    -0.12500
C842        C  0.33711085  0.03613850  0.11607893    -0.14060
C843        C  0.13144007  0.89835130  0.05467862    -0.12500
C844        C  0.16385261  0.93056289  0.05471960    -0.14060
C845        C  0.02649407  0.74367595  0.10218396    -0.12500
C846        C  0.02567474  0.72848145  0.11704335    -0.14060
C847        C  0.88143246  0.79080669  0.05896558    -0.12500
C848        C  0.91119842  0.78960400  0.05868060    -0.14060
C849        C  0.78032032  0.89975620  0.06294628    -0.12500
C850        C  0.78037832  0.92997008  0.06391682    -0.14060
C851        C  0.71712097  0.72073821  0.12091103    -0.12500
C852        C  0.72788936  0.73947079  0.10640711    -0.14060
C853        C  0.03735257  0.30896360  0.98773935    -0.12500
C854        C  0.03838402  0.30992732  0.00474063    -0.14060
C855        C  0.75380739  0.02387246  0.98957569    -0.12500
C856        C  0.75558634  0.02576448  0.00654027    -0.14060
C857        C  0.91291020  0.17333629  0.93165618    -0.12500
C858        C  0.88073683  0.14086473  0.93177128    -0.14060
C859        C  0.01542000  0.32932424  0.88414908    -0.12500
C860        C  0.01605417  0.34484274  0.86941399    -0.14060
C861        C  0.19354093  0.37508220  0.81829827    -0.12570
C862        C  0.23120486  0.41158634  0.82196362     0.09580
C863        C  0.23233826  0.44684754  0.82546806    -0.12570
C864        C  0.19657293  0.44580652  0.82519910    -0.12570
C865        C  0.15892025  0.40944286  0.82147217     0.09580
C866        C  0.15761310  0.37401094  0.81808636    -0.12570
H867        H  0.19191580  0.34751416  0.81549093     0.13560
H868        H  0.26101163  0.47545382  0.82824323     0.13560
H869        H  0.19843802  0.47354690  0.82784522     0.13560
H870        H  0.12887481  0.34555609  0.81516697     0.13560
C871        C  0.52744596  0.56681652  0.81925212    -0.12570
C872        C  0.52959863  0.60215496  0.82408425     0.09580
C873        C  0.49373783  0.59915385  0.82914639    -0.12570
C874        C  0.45632589  0.56173738  0.82910607    -0.12570
C875        C  0.45388648  0.52643949  0.82399048     0.09580
C876        C  0.48978844  0.52916278  0.81919749    -0.12570
H877        H  0.55470333  0.56837871  0.81527122     0.13560
H878        H  0.49446343  0.62588110  0.83290753     0.13560
H879        H  0.42914968  0.56058017  0.83280557     0.13560
H880        H  0.48865764  0.50235860  0.81514376     0.13560
C881        C  0.70676968  0.03334289  0.87092625    -0.12500
C882        C  0.72196856  0.03404188  0.88579831    -0.14060
C883        C  0.68180370  0.86069926  0.81741962    -0.12570
C884        C  0.64572410  0.82407289  0.82276097     0.09580
C885        C  0.61076672  0.82362222  0.82676618    -0.12570
C886        C  0.61169154  0.85900798  0.82537189    -0.12570
C887        C  0.64761239  0.89560395  0.81994508     0.09580
C888        C  0.68274298  0.89623313  0.81603803    -0.12570
H889        H  0.70910321  0.86177530  0.81413860     0.13560
H890        H  0.58248484  0.79576168  0.83083604     0.13560
H891        H  0.58424262  0.85770703  0.82857438     0.13560
H892        H  0.71090418  0.92416293  0.81190942     0.13560
C893        C  0.75027943  0.76617589  0.98607638    -0.12500
C894        C  0.75069166  0.76756252  0.00300346    -0.14060
C895        C  0.76987369  0.92087560  0.92868785    -0.12500
C896        C  0.77072703  0.89109518  0.92851085    -0.14060
C897        C  0.71994729  0.73671197  0.88208561    -0.12500
C898        C  0.70183998  0.72645874  0.86738041    -0.14060
C899        C  0.29337386  0.30564339  0.98267809    -0.12500
C900        C  0.29401478  0.30634378  0.99962176    -0.14060
C901        C  0.13235232  0.28316539  0.92682556    -0.12500
C902        C  0.16221012  0.28209357  0.92646378    -0.14060
C903        C  0.31546021  0.33223331  0.87854325    -0.12500
C904        C  0.32605688  0.35084886  0.86399903    -0.14060
C905        C  0.03901593  0.30799463  0.49727028    -0.12500
C906        C  0.03769672  0.30708791  0.48028712    -0.14060
C907        C  0.75289081  0.02485613  0.49864958    -0.12500
C908        C  0.75280259  0.02433219  0.48165104    -0.14060
C909        C  0.88673251  0.14672320  0.55493848    -0.12500
C910        C  0.91940093  0.17868248  0.55470255    -0.14060
C911        C  0.63623132  0.74057008  0.73453876    -0.12570
C912        C  0.65813867  0.72855612  0.72443826     0.09580
C913        C  0.68116711  0.71731862  0.73426352    -0.12570
C914        C  0.68015872  0.71597406  0.75405351    -0.12570
C915        C  0.65607275  0.72580785  0.76395324     0.09580
C916        C  0.63519053  0.73918744  0.75400629    -0.12570
H917        H  0.61886545  0.75016292  0.72736363     0.13560
H918        H  0.69853142  0.70822836  0.72669247     0.13560
H919        H  0.69679064  0.70590697  0.76152167     0.13560
H920        H  0.61709733  0.74780253  0.76127697     0.13560
C921        C  0.63725670  0.02761709  0.73430240    -0.12570
C922        C  0.67209852  0.03744026  0.72419522     0.09580
C923        C  0.70804236  0.04969715  0.73415922    -0.12570
C924        C  0.70775722  0.04872983  0.75403456    -0.12570
C925        C  0.67152118  0.03548696  0.76394264     0.09580
C926        C  0.63697183  0.02664234  0.75387219    -0.12570
H927        H  0.60930265  0.01851894  0.72700466     0.13560
H928        H  0.73526062  0.05721550  0.72664221     0.13560
H929        H  0.73474429  0.05550904  0.76152668     0.13560
H930        H  0.60880277  0.01681476  0.76116034     0.13560
C931        C  0.71352183  0.04250193  0.61728855    -0.12500
C932        C  0.72889433  0.04338872  0.60243055    -0.14060
C933        C  0.68732450  0.86876326  0.66985888    -0.12570
C934        C  0.65051153  0.83138180  0.66619674     0.09580
C935        C  0.61456943  0.83003360  0.66387264    -0.12570
C936        C  0.61529320  0.86531240  0.66517265    -0.12570
C937        C  0.65200532  0.90271517  0.66878971     0.09580
C938        C  0.68807027  0.90420998  0.67111433    -0.12570
H939        H  0.71541774  0.87055124  0.67181010     0.13560
H940        H  0.58570904  0.80157753  0.66114895     0.13560
H941        H  0.58709284  0.86331659  0.66323805     0.13560
H942        H  0.71684504  0.93277666  0.67382894     0.13560
C943        C  0.07947133  0.41503394  0.73321790    -0.12570
C944        C  0.04328661  0.39371728  0.72269212     0.09580
C945        C  0.00578231  0.37033025  0.73231364    -0.12570
C946        C  0.00485663  0.36999327  0.75222058    -0.12570
C947        C  0.04143094  0.39308496  0.76255050     0.09580
C948        C  0.07856074  0.41473441  0.75273669    -0.12570
H949        H  0.10894561  0.43280722  0.72633686     0.13560
H950        H  0.97740387  0.35343502  0.72451178     0.13560
H951        H  0.97578745  0.35283484  0.75946449     0.13560
H952        H  0.10737340  0.43226207  0.76018487     0.13560
C953        C  0.02417340  0.34953159  0.61571013    -0.12500
C954        C  0.02402179  0.33429460  0.60098040    -0.14060
C955        C  0.34340361  0.38308218  0.73151358    -0.12570
C956        C  0.34343584  0.41379127  0.72174332     0.09580
C957        C  0.34139751  0.44271828  0.73192440    -0.12570
C958        C  0.33990953  0.44159764  0.75139862    -0.12570
C959        C  0.34049724  0.41156191  0.76133992     0.09580
C960        C  0.34199437  0.38200227  0.75130580    -0.12570
H961        H  0.34478114  0.36032924  0.72390829     0.13560
H962        H  0.34110302  0.46661477  0.72484024     0.13560
H963        H  0.33860463  0.46472231  0.75867887     0.13560
H964        H  0.34234869  0.35845713  0.75871563     0.13560
C965        C  0.16539792  0.37948377  0.66743554    -0.12570
C966        C  0.16584846  0.41415548  0.66320839     0.09580
C967        C  0.20277150  0.45001500  0.65805514    -0.12570
C968        C  0.23869011  0.45134508  0.65727272    -0.12570
C969        C  0.23843806  0.41688978  0.66167959     0.09580
C970        C  0.20146457  0.38085438  0.66671126    -0.12570
H971        H  0.13724256  0.35142224  0.67144801     0.13560
H972        H  0.20394085  0.47712816  0.65467395     0.13560
H973        H  0.26681213  0.47956935  0.65340965     0.13560
H974        H  0.20051896  0.35392480  0.67026009     0.13560
C975        C  0.46437938  0.56884675  0.65499725    -0.12570
C976        C  0.46171774  0.53370288  0.66064363     0.09580
C977        C  0.49722882  0.53676769  0.66655392    -0.12570
C978        C  0.53464870  0.57460385  0.66714177    -0.12570
C979        C  0.53697646  0.60980249  0.66183010     0.09580
C980        C  0.50157807  0.60646032  0.65558366    -0.12570
H981        H  0.43750359  0.56741222  0.65041466     0.13560
H982        H  0.49592189  0.51009651  0.67103968     0.13560
H983        H  0.56154199  0.57642033  0.67203396     0.13560
H984        H  0.50246083  0.63307229  0.65140869     0.13560
C985        C  0.29605884  0.30753984  0.48374676    -0.12500
C986        C  0.29711844  0.30764716  0.50068635    -0.14060
C987        C  0.14048261  0.28842894  0.55789983    -0.12500
C988        C  0.17044829  0.28752858  0.55807885    -0.14060
C989        C  0.32619834  0.34028787  0.60442068    -0.12500
C990        C  0.33673442  0.35922687  0.61887867    -0.14060
C991        C  0.75194572  0.76812724  0.50213762    -0.12500
C992        C  0.75128798  0.76755654  0.48519723    -0.14060
C993        C  0.77669644  0.89866736  0.55895687    -0.12500
C994        C  0.77568337  0.92835332  0.55896810    -0.14060
C995        C  0.72844477  0.74751318  0.60651368    -0.12500
C996        C  0.71055678  0.73745836  0.62127089    -0.14060
C997        C  0.47828750  0.97214533  0.65549232    -0.12570
C998        C  0.47832540  0.00673507  0.65920969     0.09580
C999        C  0.51577392  0.04377508  0.66265965    -0.12570
C1000       C  0.55231389  0.04570104  0.66295349    -0.12570
C1001       C  0.55183626  0.01060285  0.65985397     0.09580
C1002       C  0.51452165  0.97403761  0.65582749    -0.12570
H1003       H  0.44996788  0.94316759  0.65277960     0.13560
H1004       H  0.51665026  0.07088054  0.66565506     0.13560
H1005       H  0.58069081  0.07428236  0.66616046     0.13560
H1006       H  0.51314412  0.94650309  0.65332913     0.13560
C1007       C  0.18138061  0.84010155  0.67097753    -0.12570
C1008       C  0.17914658  0.80473909  0.66611204     0.09580
C1009       C  0.21532692  0.80764505  0.66177776    -0.12570
C1010       C  0.25299232  0.84512023  0.66230802    -0.12570
C1011       C  0.25527535  0.88049767  0.66716264     0.09580
C1012       C  0.21909329  0.87763994  0.67148097    -0.12570
H1013       H  0.15397625  0.83875036  0.67438729     0.13560
H1014       H  0.21454882  0.78088859  0.65802361     0.13560
H1015       H  0.28035123  0.84640751  0.65888166     0.13560
H1016       H  0.21993129  0.90443984  0.67521158     0.13560
C1017       C  0.09049152  0.58393577  0.65407535    -0.12570
C1018       C  0.05530753  0.58293216  0.65828913     0.09580
C1019       C  0.01884808  0.54545268  0.66238235    -0.12570
C1020       C  0.01810173  0.50982584  0.66277602    -0.12570
C1021       C  0.05384606  0.51131754  0.65919222     0.09580
C1022       C  0.08980065  0.54863260  0.65456254    -0.12570
H1023       H  0.11907080  0.61233177  0.65089662     0.13560
H1024       H  0.99131580  0.54386935  0.66574625     0.13560
H1025       H  0.98994578  0.48137912  0.66638172     0.13560
H1026       H  0.11778200  0.55074364  0.65165447     0.13560
C1027       C  0.29321182  0.04983145  0.50522314    -0.12500
C1028       C  0.29334675  0.05006160  0.48822786    -0.14060
C1029       C  0.27500973  0.15101267  0.56268437    -0.12500
C1030       C  0.27468269  0.18099304  0.56156770    -0.14060
C1031       C  0.33387960  0.04678093  0.60692266    -0.12500
C1032       C  0.34764405  0.04070620  0.62066218    -0.14060
C1033       C  0.01012551  0.76709476  0.50609859    -0.12500
C1034       C  0.00955705  0.76644462  0.48910650    -0.14060
C1035       C  0.13096095  0.89903054  0.56653131    -0.12500
C1036       C  0.16346762  0.93149265  0.56640540    -0.14060
C1037       C  0.91200698  0.79183273  0.56258539    -0.12500
C1038       C  0.88245173  0.79318920  0.56143413    -0.14060
C1039       C  0.01820707  0.71495365  0.62156680    -0.12500
C1040       C  0.01270859  0.72933681  0.60791611    -0.14060
C1041       C  0.07897989  0.67643978  0.75322528    -0.12570
C1042       C  0.05093406  0.68046144  0.76326355     0.09580
C1043       C  0.02169673  0.68288061  0.75324239    -0.12570
C1044       C  0.02186755  0.68294095  0.73340907    -0.12570
C1045       C  0.05128123  0.68058960  0.72351802     0.09580
C1046       C  0.07915021  0.67650280  0.73368061    -0.12570
H1047       H  0.10160083  0.67405181  0.76049350     0.13560
H1048       H  0.99964390  0.68586936  0.76068852     0.13560
H1049       H  0.99995339  0.68598903  0.72586452     0.13560
H1050       H  0.10190003  0.67416710  0.72651123     0.13560
C1051       C  0.01531836  0.54404771  0.82351070    -0.12570
C1052       C  0.05188929  0.58106672  0.82806029     0.09580
C1053       C  0.08646723  0.58123142  0.83260882    -0.12570
C1054       C  0.08509446  0.54556154  0.83202084    -0.12570
C1055       C  0.04905965  0.50872122  0.82691980     0.09580
C1056       C  0.01389846  0.50806662  0.82298069    -0.12570
H1057       H  0.98824629  0.54311510  0.81987860     0.13560
H1058       H  0.11510751  0.60925643  0.83614728     0.13560
H1059       H  0.11264780  0.54703846  0.83519885     0.13560
H1060       H  0.98570228  0.48001577  0.81900123     0.13560
C1061       C  0.35414611  0.02838085  0.75305060    -0.12570
C1062       C  0.37979235  0.02071751  0.76305413     0.09580
C1063       C  0.40757500  0.01617347  0.75309319    -0.12570
C1064       C  0.40758928  0.01593043  0.73351298    -0.12570
C1065       C  0.37989074  0.02032447  0.72340451     0.09580
C1066       C  0.35421936  0.02821547  0.73323915    -0.12570
H1067       H  0.33239515  0.03186860  0.76047332     0.13560
H1068       H  0.42805066  0.01078027  0.76047481     0.13560
H1069       H  0.42809683  0.01041183  0.72625568     0.13560
H1070       H  0.33256720  0.03165221  0.72568632     0.13560
C1071       C  0.25077189  0.84478015  0.82645624    -0.12570
C1072       C  0.25343719  0.87958465  0.82013597     0.09580
C1073       C  0.21765867  0.87619584  0.81442551    -0.12570
C1074       C  0.17995942  0.83866937  0.81496786    -0.12570
C1075       C  0.17736124  0.80382743  0.82119368     0.09580
C1076       C  0.21313364  0.80728141  0.82695585    -0.12570
H1077       H  0.27783933  0.84650044  0.83096225     0.13560
H1078       H  0.21880570  0.90256384  0.80955844     0.13560
H1079       H  0.15287214  0.83688896  0.81044204     0.13560
H1080       H  0.21206276  0.78093770  0.83179504     0.13560
C1081       C  0.47465529  0.96741337  0.81917945    -0.12570
C1082       C  0.47497428  0.00138375  0.82467226     0.09580
C1083       C  0.51226848  0.03710187  0.82981062    -0.12570
C1084       C  0.54852280  0.03841164  0.82959037    -0.12570
C1085       C  0.54778871  0.00405691  0.82419113     0.09580
C1086       C  0.51049746  0.96873048  0.81892856    -0.12570
H1087       H  0.44655621  0.93965033  0.81484777     0.13560
H1088       H  0.51334152  0.06380493  0.83398032     0.13560
H1089       H  0.57698598  0.06611318  0.83363911     0.13560
H1090       H  0.50896210  0.94193864  0.81445569     0.13560
C1091       C  0.29413711  0.05081667  0.99764462    -0.12500
C1092       C  0.29334334  0.05019415  0.98065660    -0.14060
C1093       C  0.26803587  0.17665825  0.92345450    -0.12500
C1094       C  0.26916952  0.14711246  0.92269869    -0.14060
C1095       C  0.34612666  0.03934573  0.86564967    -0.12500
C1096       C  0.33191668  0.04503873  0.87933386    -0.14060
C1097       C  0.00906356  0.76626360  0.99812079    -0.12500
C1098       C  0.00912201  0.76634877  0.98112277    -0.14060
C1099       C  0.90769982  0.78650113  0.92436538    -0.12500
C1100       C  0.87770528  0.78711515  0.92555212    -0.14060
C1101       C  0.12823347  0.89670475  0.92037168    -0.12500
C1102       C  0.16082139  0.92909548  0.92031638    -0.14060
C1103       C  0.01049816  0.72766397  0.87899204    -0.12500
C1104       C  0.01617814  0.71354854  0.86528831    -0.14060
loop_ 
_geom_bond_atom_site_label_1 
_geom_bond_atom_site_label_2 
_geom_bond_distance 
_geom_bond_site_symmetry_2 
_ccdc_geom_bond_type 
In1           O3   2.261       .  S
In1           O4   2.251       .  S
In1          O12   2.250       .  S
In1           O6   2.255       .  S
In1           O8   2.267       .  S
In1           O9   2.240   1_455  S
In1          O10   2.233       .  S
In1          O13   2.250   1_455  S
C2            O8   1.261       .  A
C2           O10   1.258       .  A
C2         C1098   1.437       .  S
O3           C11   1.260       .  A
O4           C11   1.258       .  A
C5           O12   1.258       .  A
C5            O6   1.259       .  A
C5         C1103   1.437       .  S
C7            O9   1.258       .  A
C7           O13   1.259       .  A
C7         C1099   1.433       .  S
C11        C1101   1.441       .  S
In14         O16   2.252       .  S
In14         O17   2.242       .  S
In14         O25   2.250       .  S
In14         O19   2.255       .  S
In14         O21   2.265       .  S
In14         O22   2.252       .  S
In14         O23   2.235       .  S
In14         O26   2.262   1_545  S
C15          O21   1.260       .  A
C15          O23   1.258       .  A
C15        C1092   1.436       .  S
O16          C24   1.259       .  A
O17          C24   1.258       .  A
C18          O25   1.258       .  A
C18          O19   1.259       .  A
C18        C1096   1.437       .  S
C20          O22   1.258   1_565  A
C20          O26   1.260       .  A
C20        C1102   1.441       .  S
C24        C1094   1.434       .  S
In27         O29   2.230       .  S
In27         O30   2.262   1_565  S
In27         O38   2.273   1_565  S
In27         O32   2.215       .  S
In27         O34   2.248       .  S
In27         O35   2.284   1_565  S
In27         O36   2.257       .  S
In27         O39   2.213       .  S
C28          O34   1.259       .  A
C28          O36   1.260       .  A
C28        C1072   1.479       .  S
O29          C37   1.257   1_565  A
O30          C37   1.262       .  A
C31          O38   1.265   1_565  A
C31          O32   1.261       .  A
C31        C1082   1.479   1_565  S
C33          O35   1.264       .  A
C33          O39   1.256   1_545  A
C33        C1062   1.474       .  S
C37        C1095   1.435       .  S
In40         O42   2.202       .  S
In40         O43   2.279       .  S
In40         O51   2.263       .  S
In40         O45   2.225       .  S
In40         O47   2.246       .  S
In40         O48   2.262       .  S
In40         O49   2.252       .  S
In40         O52   2.231       .  S
C41          O47   1.261       .  A
C41          O49   1.262       .  A
C41        C1075   1.480       .  S
O42          C50   1.259       .  A
O43          C50   1.266       .  A
C44          O51   1.264       .  A
C44          O45   1.261       .  A
C44        C1052   1.479       .  S
C46          O48   1.262       .  A
C46          O52   1.257       .  A
C46        C1104   1.436       .  S
C50        C1042   1.478       .  S
In53         O55   2.250   1_455  S
In53         O56   2.239   1_455  S
In53         O64   2.251       .  S
In53         O58   2.255       .  S
In53         O60   2.266       .  S
In53         O61   2.250       .  S
In53         O62   2.233       .  S
In53         O65   2.261       .  S
C54          O60   1.261       .  A
C54          O62   1.257       .  A
C54        C1033   1.436       .  S
O55          C63   1.260       .  A
O56          C63   1.258       .  A
C57          O64   1.258       .  A
C57          O58   1.259       .  A
C57        C1040   1.437       .  S
C59          O61   1.258       .  A
C59          O65   1.260       .  A
C59        C1035   1.440       .  S
C63        C1037   1.432       .  S
In66         O68   2.260   1_545  S
In66         O69   2.252       .  S
In66         O77   2.248       .  S
In66         O71   2.255       .  S
In66         O73   2.265       .  S
In66         O74   2.242       .  S
In66         O75   2.233       .  S
In66         O78   2.252       .  S
C67          O73   1.261       .  A
C67          O75   1.258       .  A
C67        C1027   1.437       .  S
O68          C76   1.260       .  A
O69          C76   1.259   1_545  A
C70          O77   1.258       .  A
C70          O71   1.259       .  A
C70        C1031   1.437       .  S
C72          O74   1.259       .  A
C72          O78   1.259       .  A
C72        C1029   1.434       .  S
C76        C1036   1.441       .  S
In79         O81   2.231       .  S
In79         O82   2.262       .  S
In79         O90   2.265       .  S
In79         O84   2.224       .  S
In79         O86   2.245       .  S
In79         O87   2.281       .  S
In79         O88   2.255       .  S
In79         O91   2.202       .  S
C80          O86   1.261       .  A
C80          O88   1.262       .  A
C80        C1008   1.480       .  S
O81          C89   1.257       .  A
O82          C89   1.262       .  A
C83          O90   1.264       .  A
C83          O84   1.261       .  A
C83        C1018   1.479       .  S
C85          O87   1.266       .  A
C85          O91   1.258       .  A
C85        C1045   1.477       .  S
C89        C1039   1.436       .  S
In92         O94   2.217       .  S
In92         O95   2.278   1_565  S
In92        O103   2.266   1_565  S
In92         O97   2.228       .  S
In92         O99   2.251       .  S
In92        O100   2.263   1_565  S
In92        O101   2.256       .  S
In92        O104   2.232       .  S
C93          O99   1.260       .  A
C93         O101   1.260       .  A
C93        C1011   1.480       .  S
O94         C102   1.258   1_565  A
O95         C102   1.263       .  A
C96         O103   1.264       .  A
C96          O97   1.262   1_545  A
C96         C998   1.481       .  S
C98         O100   1.261       .  A
C98         O104   1.256   1_545  A
C98        C1032   1.436       .  S
C102       C1065   1.474       .  S
In105       O107   2.219       .  S
In105       O108   2.259       .  S
In105       O116   2.241       .  S
In105       O110   2.241       .  S
In105       O112   2.247       .  S
In105       O113   2.241       .  S
In105       O114   2.248       .  S
In105       O117   2.223       .  S
C106        O112   1.261       .  A
C106        O114   1.259       .  A
C106        C993   1.437       .  S
O107        C115   1.258       .  A
O108        C115   1.261       .  A
C109        O116   1.259       .  A
C109        O110   1.261       .  A
C109       C1038   1.432       .  S
C111        O113   1.262       .  A
C111        O117   1.258       .  A
C111        C995   1.427       .  S
C115        C991   1.430       .  S
In118       O120   2.226       .  S
In118       O121   2.245       .  S
In118       O129   2.245       .  S
In118       O123   2.242       .  S
In118       O125   2.248       .  S
In118       O126   2.260       .  S
In118       O127   2.250       .  S
In118       O130   2.220       .  S
C119        O125   1.261       .  A
C119        O127   1.259       .  A
C119        C988   1.437       .  S
O120        C128   1.258       .  A
O121        C128   1.261       .  A
C122        O129   1.260       .  A
C122        O123   1.260       .  A
C122       C1030   1.434       .  S
C124        O126   1.261       .  A
C124        O130   1.258       .  A
C124        C986   1.431       .  S
C128        C989   1.429       .  S
In131       O133   2.217       .  S
In131       O134   2.253       .  S
In131       O142   2.255       .  S
In131       O136   2.222       .  S
In131       O138   2.228       .  S
In131       O139   2.271       .  S
In131       O140   2.249       .  S
In131       O143   2.189       .  S
C132        O138   1.261       .  A
C132        O140   1.262       .  A
C132        C969   1.474       .  S
O133        C141   1.256       .  A
O134        C141   1.262       .  A
C135        O142   1.263       .  A
C135        O136   1.260       .  A
C135        C976   1.475       .  S
C137        O139   1.265       .  A
C137        O143   1.258       .  A
C137        C956   1.472       .  S
C141        C990   1.428       .  S
In144       O146   2.195       .  S
In144       O147   2.297       .  S
In144       O155   2.265       .  S
In144       O149   2.217       .  S
In144       O151   2.227       .  S
In144       O152   2.268       .  S
In144       O153   2.242       .  S
In144       O156   2.221       .  S
C145        O151   1.263       .  A
C145        O153   1.263       .  A
C145        C966   1.473       .  S
O146        C154   1.258       .  A
O147        C154   1.269       .  A
C148        O155   1.265       .  A
C148        O149   1.260       .  A
C148       C1021   1.478       .  S
C150        O152   1.266       .  A
C150        O156   1.256       .  A
C150        C953   1.437       .  S
C154        C944   1.483       .  S
In157       O159   2.221       .  S
In157       O160   2.273       .  S
In157       O168   2.267       .  S
In157       O162   2.217   1_545  S
In157       O164   2.229   1_545  S
In157       O165   2.294       .  S
In157       O166   2.249   1_545  S
In157       O169   2.207       .  S
C158        O164   1.260       .  A
C158        O166   1.261       .  A
C158        C937   1.474       .  S
O159        C167   1.255       .  A
O160        C167   1.266       .  A
C161        O168   1.266       .  A
C161        O162   1.261   1_545  A
C161       C1001   1.480       .  S
C163        O165   1.267       .  A
C163        O169   1.258       .  A
C163        C922   1.479       .  S
C167        C931   1.438       .  S
In170       O172   2.255       .  S
In170       O173   2.223       .  S
In170       O181   2.185       .  S
In170       O175   2.271       .  S
In170       O177   2.250       .  S
In170       O178   2.226       .  S
In170       O179   2.213       .  S
In170       O182   2.250       .  S
C171        O177   1.262       .  A
C171        O179   1.256       .  A
C171        C996   1.426       .  S
O172        C180   1.262       .  A
O173        C180   1.260       .  A
C174        O181   1.258       .  A
C174        O175   1.265       .  A
C174        C912   1.469       .  S
C176        O178   1.261       .  A
C176        O182   1.263       .  A
C176        C934   1.474       .  S
C180        C979   1.475       .  S
In183       O185   2.245       .  S
In183       O186   2.232       .  S
In183       O194   2.243       .  S
In183       O188   2.265       .  S
In183       O190   2.271       .  S
In183       O191   2.240   1_545  S
In183       O192   2.228       .  S
In183       O195   2.258   1_545  S
C184        O190   1.263       .  A
C184        O192   1.257       .  A
C184        C907   1.437       .  S
O185        C193   1.260       .  A
O186        C193   1.259       .  A
C187        O194   1.257       .  A
C187        O188   1.261       .  A
C187        C932   1.440       .  S
C189        O191   1.258       .  A
C189        O195   1.261       .  A
C189        C994   1.436       .  S
C193        C909   1.430       .  S
In196       O198   2.260       .  S
In196       O199   2.241       .  S
In196       O207   2.241       .  S
In196       O201   2.262       .  S
In196       O203   2.270       .  S
In196       O204   2.233   1_455  S
In196       O205   2.227       .  S
In196       O208   2.243   1_455  S
C197        O203   1.263       .  A
C197        O205   1.257       .  A
C197        C905   1.436       .  S
O198        C206   1.261       .  A
O199        C206   1.258       .  A
C200        O207   1.257       .  A
C200        O201   1.262       .  A
C200        C954   1.439       .  S
C202        O204   1.260       .  A
C202        O208   1.260       .  A
C202        C910   1.430       .  S
C206        C987   1.437       .  S
In209       O211   2.220       .  S
In209       O212   2.259       .  S
In209       O220   2.243       .  S
In209       O214   2.243       .  S
In209       O216   2.249       .  S
In209       O217   2.243       .  S
In209       O218   2.249       .  S
In209       O221   2.227       .  S
C210        O216   1.261       .  A
C210        O218   1.259       .  A
C210        C902   1.437       .  S
O211        C219   1.258       .  A
O212        C219   1.261       .  A
C213        O220   1.259       .  A
C213        O214   1.261       .  A
C213       C1093   1.434       .  S
C215        O217   1.261       .  A
C215        O221   1.258       .  A
C215        C903   1.428       .  S
C219        C899   1.431       .  S
In222       O224   2.222       .  S
In222       O225   2.244       .  S
In222       O233   2.243       .  S
In222       O227   2.240       .  S
In222       O229   2.247       .  S
In222       O230   2.259       .  S
In222       O231   2.249       .  S
In222       O234   2.217       .  S
C223        O229   1.261       .  A
C223        O231   1.259       .  A
C223        C896   1.437       .  S
O224        C232   1.258       .  A
O225        C232   1.262       .  A
C226        O233   1.260       .  A
C226        O227   1.261       .  A
C226       C1100   1.433       .  S
C228        O230   1.262       .  A
C228        O234   1.258       .  A
C228        C893   1.430       .  S
C232        C897   1.427       .  S
In235       O237   2.204   1_545  S
In235       O238   2.297       .  S
In235       O246   2.271       .  S
In235       O240   2.208   1_545  S
In235       O242   2.229   1_545  S
In235       O243   2.267       .  S
In235       O244   2.252   1_545  S
In235       O247   2.223   1_545  S
C236        O242   1.260       .  A
C236        O244   1.262       .  A
C236        C887   1.474       .  S
O237        C245   1.257   1_565  A
O238        C245   1.267       .  A
C239        O246   1.266       .  A
C239        O240   1.261   1_545  A
C239       C1085   1.478       .  S
C241        O243   1.266       .  A
C241        O247   1.256   1_545  A
C241        C881   1.438       .  S
C245        C925   1.478       .  S
In248       O250   2.249       .  S
In248       O251   2.229       .  S
In248       O259   2.186       .  S
In248       O253   2.270       .  S
In248       O255   2.250       .  S
In248       O256   2.221       .  S
In248       O257   2.215       .  S
In248       O260   2.256       .  S
C249        O255   1.262       .  A
C249        O257   1.256       .  A
C249        C898   1.426       .  S
O250        C258   1.262       .  A
O251        C258   1.262       .  A
C252        O259   1.258       .  A
C252        O253   1.265       .  A
C252        C915   1.469       .  S
C254        O256   1.260       .  A
C254        O260   1.262       .  A
C254        C872   1.474       .  S
C258        C884   1.474       .  S
In261       O263   2.255       .  S
In261       O264   2.219       .  S
In261       O272   2.188       .  S
In261       O266   2.272       .  S
In261       O268   2.252       .  S
In261       O269   2.225       .  S
In261       O270   2.215       .  S
In261       O273   2.250       .  S
C262        O268   1.262       .  A
C262        O270   1.256       .  A
C262        C904   1.428       .  S
O263        C271   1.263       .  A
O264        C271   1.260       .  A
C265        O272   1.258       .  A
C265        O266   1.265       .  A
C265        C959   1.472       .  S
C267        O269   1.260       .  A
C267        O273   1.262       .  A
C267        C862   1.473       .  S
C271        C875   1.474       .  S
In274       O276   2.220       .  S
In274       O277   2.270       .  S
In274       O285   2.266       .  S
In274       O279   2.216       .  S
In274       O281   2.225       .  S
In274       O282   2.299       .  S
In274       O283   2.241       .  S
In274       O286   2.193       .  S
C275        O281   1.263       .  A
C275        O283   1.263       .  A
C275        C865   1.472       .  S
O276        C284   1.256       .  A
O277        C284   1.267       .  A
C278        O285   1.265       .  A
C278        O279   1.260       .  A
C278       C1055   1.478       .  S
C280        O282   1.269       .  A
C280        O286   1.258       .  A
C280        C947   1.483       .  S
C284        C860   1.438       .  S
In287       O289   2.258   1_545  S
In287       O290   2.241   1_545  S
In287       O298   2.240       .  S
In287       O292   2.263       .  S
In287       O294   2.269       .  S
In287       O295   2.234       .  S
In287       O296   2.226       .  S
In287       O299   2.244       .  S
C288        O294   1.263       .  A
C288        O296   1.257       .  A
C288        C855   1.436       .  S
O289        C297   1.261       .  A
O290        C297   1.258       .  A
C291        O298   1.257       .  A
C291        O292   1.262       .  A
C291        C882   1.439       .  S
C293        O295   1.260       .  A
C293        O299   1.260       .  A
C293        C858   1.431       .  S
C297        C895   1.437       .  S
In300       O302   2.247   1_455  S
In300       O303   2.233   1_455  S
In300       O311   2.245       .  S
In300       O305   2.265       .  S
In300       O307   2.273       .  S
In300       O308   2.241       .  S
In300       O309   2.231       .  S
In300       O312   2.259       .  S
C301        O307   1.262       .  A
C301        O309   1.257       .  A
C301        C853   1.438       .  S
O302        C310   1.260       .  A
O303        C310   1.259       .  A
C304        O311   1.257       .  A
C304        O305   1.261       .  A
C304        C859   1.440       .  S
C306        O308   1.258       .  A
C306        O312   1.261       .  A
C306        C901   1.437       .  S
C310        C857   1.431       .  S
In313       O315   2.227       .  S
In313       O316   2.242       .  S
In313       O324   2.247       .  S
In313       O318   2.244       .  S
In313       O320   2.247       .  S
In313       O321   2.258       .  S
In313       O322   2.249       .  S
In313       O325   2.222       .  S
C314        O320   1.260       .  A
C314        O322   1.259       .  A
C314        C847   1.436       .  S
O315        C323   1.258       .  A
O316        C323   1.260       .  A
C317        O324   1.259       .  A
C317        O318   1.260       .  A
C317        C849   1.434       .  S
C319        O321   1.260       .  A
C319        O325   1.258       .  A
C319        C894   1.430       .  S
C323        C852   1.427       .  S
In326       O328   2.258   1_455  S
In326       O329   2.239   1_455  S
In326       O337   2.241       .  S
In326       O331   2.263       .  S
In326       O333   2.271       .  S
In326       O334   2.231       .  S
In326       O335   2.227       .  S
In326       O338   2.244       .  S
C327        O333   1.263       .  A
C327        O335   1.257       .  A
C327       C1097   1.437   1_554  S
O328        C336   1.261       .  A
O329        C336   1.258       .  A
C330        O337   1.257       .  A
C330        O331   1.262       .  A
C330        C845   1.439       .  S
C332        O334   1.259       .  A
C332        O338   1.260       .  A
C332        C843   1.430       .  S
C336        C848   1.436       .  S
In339       O341   2.244   1_545  S
In339       O342   2.232       .  S
In339       O350   2.242       .  S
In339       O344   2.263       .  S
In339       O346   2.269       .  S
In339       O347   2.241       .  S
In339       O348   2.226       .  S
In339       O351   2.258       .  S
C340        O346   1.263       .  A
C340        O348   1.257       .  A
C340       C1091   1.436   1_554  S
O341        C349   1.260       .  A
O342        C349   1.259   1_545  A
C343        O350   1.257       .  A
C343        O344   1.261       .  A
C343        C841   1.439       .  S
C345        O347   1.258       .  A
C345        O351   1.261       .  A
C345        C840   1.437       .  S
C349        C844   1.430       .  S
In352       O354   2.219       .  S
In352       O355   2.259       .  S
In352       O363   2.242       .  S
In352       O357   2.242       .  S
In352       O359   2.249       .  S
In352       O360   2.243       .  S
In352       O361   2.247       .  S
In352       O364   2.223       .  S
C353        O359   1.261       .  A
C353        O361   1.259       .  A
C353        C839   1.437       .  S
O354        C362   1.258       .  A
O355        C362   1.262       .  A
C356        O363   1.259       .  A
C356        O357   1.261       .  A
C356        C835   1.434       .  S
C358        O360   1.262       .  A
C358        O364   1.258       .  A
C358        C837   1.428       .  S
C362        C900   1.431   1_554  S
In365       O367   2.199       .  S
In365       O368   2.294   1_655  S
In365       O376   2.264   1_655  S
In365       O370   2.215       .  S
In365       O372   2.229       .  S
In365       O373   2.270   1_655  S
In365       O374   2.245       .  S
In365       O377   2.218       .  S
C366        O372   1.261       .  A
C366        O374   1.262       .  A
C366        C826   1.474       .  S
O367        C375   1.259   1_655  A
O368        C375   1.268       .  A
C369        O376   1.266   1_655  A
C369        O370   1.261       .  A
C369        C806   1.478       .  S
C371        O373   1.267       .  A
C371        O377   1.256   1_455  A
C371        C846   1.437       .  S
C375        C816   1.482       .  S
In378       O380   2.243       .  S
In378       O381   2.233       .  S
In378       O389   2.202       .  S
In378       O383   2.274       .  S
In378       O385   2.247       .  S
In378       O386   2.231       .  S
In378       O387   2.228       .  S
In378       O390   2.255       .  S
C379        O385   1.259       .  A
C379        O387   1.256       .  A
C379        C851   1.427       .  S
O380        C388   1.263       .  A
O381        C388   1.263       .  A
C382        O389   1.256       .  A
C382        O383   1.262       .  A
C382        C786   1.467       .  S
C384        O386   1.259       .  A
C384        O390   1.261       .  A
C384        C796   1.475       .  S
C388        C829   1.474       .  S
In391       O393   2.220       .  S
In391       O394   2.271       .  S
In391       O402   2.265       .  S
In391       O396   2.218       .  S
In391       O398   2.232       .  S
In391       O399   2.290       .  S
In391       O400   2.246       .  S
In391       O403   2.209       .  S
C392        O398   1.261       .  A
C392        O400   1.261       .  A
C392        C776   1.474       .  S
O393        C401   1.255       .  A
O394        C401   1.266       .  A
C395        O402   1.266       .  A
C395        O396   1.261       .  A
C395        C766   1.478       .  S
C397        O399   1.267       .  A
C397        O403   1.259       .  A
C397        C756   1.479       .  S
C401        C842   1.437       .  S
In404       O406   2.254       .  S
In404       O407   2.225       .  S
In404       O415   2.187       .  S
In404       O409   2.274       .  S
In404       O411   2.247       .  S
In404       O412   2.228       .  S
In404       O413   2.220       .  S
In404       O416   2.247       .  S
C405        O411   1.262       .  A
C405        O413   1.257       .  A
C405        C838   1.427       .  S
O406        C414   1.262       .  A
O407        C414   1.260       .  A
C408        O415   1.257       .  A
C408        O409   1.265       .  A
C408        C746   1.469       .  S
C410        O412   1.262       .  A
C410        O416   1.263       .  A
C410        C779   1.474       .  S
C414        C799   1.474       .  S
In417       O419   2.218       .  S
In417       O420   2.259       .  S
In417       O428   2.245       .  S
In417       O422   2.243       .  S
In417       O424   2.248       .  S
In417       O425   2.244       .  S
In417       O426   2.248       .  S
In417       O429   2.224       .  S
C418        O424   1.261       .  A
C418        O426   1.259       .  A
C418        C739   1.437       .  S
O419        C427   1.258       .  A
O420        C427   1.262       .  A
C421        O428   1.260       .  A
C421        O422   1.261       .  A
C421        C741   1.434       .  S
C423        O425   1.261       .  A
C423        O429   1.258       .  A
C423        C744   1.428       .  S
C427        C992   1.430       .  S
In430       O432   2.253   1_545  S
In430       O433   2.242   1_545  S
In430       O441   2.250       .  S
In430       O435   2.256       .  S
In430       O437   2.267       .  S
In430       O438   2.252       .  S
In430       O439   2.235       .  S
In430       O442   2.261       .  S
C431        O437   1.261       .  A
C431        O439   1.258       .  A
C431        C908   1.437       .  S
O432        C440   1.260       .  A
O433        C440   1.258       .  A
C434        O441   1.258       .  A
C434        O435   1.259       .  A
C434        C737   1.437       .  S
C436        O438   1.259       .  A
C436        O442   1.260       .  A
C436        C735   1.441       .  S
C440        C742   1.434       .  S
In443       O445   2.262   1_455  S
In443       O446   2.251   1_455  S
In443       O454   2.250       .  S
In443       O448   2.255       .  S
In443       O450   2.266       .  S
In443       O451   2.240       .  S
In443       O452   2.233       .  S
In443       O455   2.250       .  S
C444        O450   1.261       .  A
C444        O452   1.258       .  A
C444        C906   1.436       .  S
O445        C453   1.260       .  A
O446        C453   1.258       .  A
C447        O454   1.258       .  A
C447        O448   1.259       .  A
C447        C733   1.437       .  S
C449        O451   1.258       .  A
C449        O455   1.259       .  A
C449        C731   1.433       .  S
C453        C736   1.441       .  S
In456       O458   2.226       .  S
In456       O459   2.243       .  S
In456       O467   2.243       .  S
In456       O461   2.241       .  S
In456       O463   2.248       .  S
In456       O464   2.260       .  S
In456       O465   2.249       .  S
In456       O468   2.221       .  S
C457        O463   1.260       .  A
C457        O465   1.259       .  A
C457        C728   1.437       .  S
O458        C466   1.258       .  A
O459        C466   1.261       .  A
C460        O467   1.259       .  A
C460        O461   1.260       .  A
C460        C732   1.433       .  S
C462        O464   1.261       .  A
C462        O468   1.258       .  A
C462        C985   1.431       .  S
C466        C730   1.428       .  S
In469       O471   2.255       .  S
In469       O472   2.228       .  S
In469       O480   2.201       .  S
In469       O474   2.274       .  S
In469       O476   2.249       .  S
In469       O477   2.230       .  S
In469       O478   2.227       .  S
In469       O481   2.246       .  S
C470        O476   1.260       .  A
C470        O478   1.256       .  A
C470        C743   1.427       .  S
O471        C479   1.261       .  A
O472        C479   1.259       .  A
C473        O480   1.256       .  A
C473        O474   1.263       .  A
C473        C789   1.466       .  S
C475        O477   1.263       .  A
C475        O481   1.263       .  A
C475        C708   1.474       .  S
C479        C718   1.474       .  S
In482       O484   2.220       .  S
In482       O485   2.268   1_655  S
In482       O493   2.263   1_655  S
In482       O487   2.217       .  S
In482       O489   2.230       .  S
In482       O490   2.295   1_655  S
In482       O491   2.245       .  S
In482       O494   2.199       .  S
C483        O489   1.261       .  A
C483        O491   1.262       .  A
C483        C711   1.473       .  S
O484        C492   1.256   1_655  A
O485        C492   1.267       .  A
C486        O493   1.266   1_655  A
C486        O487   1.261       .  A
C486        C698   1.479       .  S
C488        O490   1.268       .  A
C488        O494   1.258   1_455  A
C488        C819   1.482       .  S
C492        C695   1.438       .  S
In495       O497   2.230       .  S
In495       O498   2.263       .  S
In495       O506   2.273       .  S
In495       O500   2.214       .  S
In495       O502   2.241       .  S
In495       O503   2.284       .  S
In495       O504   2.259       .  S
In495       O507   2.204       .  S
C496        O502   1.260       .  A
C496        O504   1.261       .  A
C496        C676   1.479       .  S
O497        C505   1.257       .  A
O498        C505   1.263       .  A
C499        O506   1.265       .  A
C499        O500   1.260       .  A
C499        C686   1.478       .  S
C501        O503   1.265       .  A
C501        O507   1.257       .  A
C501        C666   1.476       .  S
C505        C738   1.436       .  S
In508       O510   2.205       .  S
In508       O511   2.296       .  S
In508       O519   2.267       .  S
In508       O513   2.209       .  S
In508       O515   2.230       .  S
In508       O516   2.268       .  S
In508       O517   2.248       .  S
In508       O520   2.222       .  S
C509        O515   1.260       .  A
C509        O517   1.262       .  A
C509        C656   1.473       .  S
O510        C518   1.257       .  A
O511        C518   1.267       .  A
C512        O519   1.266       .  A
C512        O513   1.261       .  A
C512        C689   1.478       .  S
C514        O516   1.266       .  A
C514        O520   1.256       .  A
C514        C653   1.438       .  S
C518        C759   1.479       .  S
In521       O523   2.206       .  S
In521       O524   2.280   1_655  S
In521       O532   2.265   1_655  S
In521       O526   2.225       .  S
In521       O528   2.243       .  S
In521       O529   2.262   1_655  S
In521       O530   2.256       .  S
In521       O533   2.231       .  S
C522        O528   1.261       .  A
C522        O530   1.261       .  A
C522        C679   1.479       .  S
O523        C531   1.259       .  A
O524        C531   1.265   1_455  A
C525        O532   1.264   1_655  A
C525        O526   1.261       .  A
C525        C701   1.479       .  S
C527        O529   1.262       .  A
C527        O533   1.257   1_455  A
C527        C734   1.436       .  S
C531        C644   1.478       .  S
In534       O536   2.247       .  S
In534       O537   2.229       .  S
In534       O545   2.187       .  S
In534       O539   2.273       .  S
In534       O541   2.251       .  S
In534       O542   2.222       .  S
In534       O543   2.218       .  S
In534       O546   2.256       .  S
C535        O541   1.262       .  A
C535        O543   1.256       .  A
C535        C729   1.427       .  S
O536        C544   1.263       .  A
O537        C544   1.262       .  A
C538        O545   1.257       .  A
C538        O539   1.265       .  A
C538        C749   1.469       .  S
C540        O542   1.259       .  A
C540        O546   1.262       .  A
C540        C721   1.474       .  S
C544        C659   1.474       .  S
In547       O549   2.246       .  S
In547       O550   2.233       .  S
In547       O558   2.242       .  S
In547       O552   2.263       .  S
In547       O554   2.270       .  S
In547       O555   2.241   1_455  S
In547       O556   2.228       .  S
In547       O559   2.259   1_455  S
C548        O554   1.263       .  A
C548        O556   1.257       .  A
C548       C1034   1.436       .  S
O549        C557   1.260       .  A
O550        C557   1.259       .  A
C551        O558   1.257       .  A
C551        O552   1.261       .  A
C551        C696   1.439       .  S
C553        O555   1.258       .  A
C553        O559   1.261       .  A
C553        C740   1.437       .  S
C557        C642   1.431       .  S
In560       O562   2.258       .  S
In560       O563   2.242       .  S
In560       O571   2.242       .  S
In560       O565   2.263       .  S
In560       O567   2.269       .  S
In560       O568   2.233   1_545  S
In560       O569   2.228       .  S
In560       O572   2.246   1_545  S
C561        O567   1.263       .  A
C561        O569   1.257       .  A
C561       C1028   1.436       .  S
O562        C570   1.261       .  A
O563        C570   1.258       .  A
C564        O571   1.257       .  A
C564        O565   1.262       .  A
C564        C654   1.439       .  S
C566        O568   1.259       .  A
C566        O572   1.260       .  A
C566        C641   1.431       .  S
C570        C727   1.437       .  S
In573       O575   2.254       .  S
In573       O576   2.239       .  S
In573       O584   2.252       .  S
In573       O578   2.260       .  S
In573       O580   2.270       .  S
In573       O581   2.249   1_455  S
In573       O582   2.234       .  S
In573       O585   2.262   1_455  S
C574        O580   1.261       .  A
C574        O582   1.257       .  A
C574        C854   1.438       .  S
O575        C583   1.260       .  A
O576        C583   1.258       .  A
C577        O584   1.257       .  A
C577        O578   1.260       .  A
C577        C639   1.439       .  S
C579        O581   1.258       .  A
C579        O585   1.260       .  A
C579        C638   1.441       .  S
C583        C836   1.434       .  S
In586       O588   2.261       .  S
In586       O589   2.253       .  S
In586       O597   2.249       .  S
In586       O591   2.252       .  S
In586       O593   2.264       .  S
In586       O594   2.244       .  S
In586       O595   2.234       .  S
In586       O598   2.250   1_545  S
C587        O593   1.261       .  A
C587        O595   1.258       .  A
C587        C856   1.436       .  S
O588        C596   1.259       .  A
O589        C596   1.259       .  A
C590        O597   1.258       .  A
C590        O591   1.259       .  A
C590        C636   1.436       .  S
C592        O594   1.259   1_565  A
C592        O598   1.259       .  A
C592        C850   1.434       .  S
C596        C637   1.441       .  S
In599       O601   2.233       .  S
In599       O602   2.266   1_655  S
In599       O610   2.267   1_655  S
In599       O604   2.223       .  S
In599       O606   2.245       .  S
In599       O607   2.283   1_655  S
In599       O608   2.256       .  S
In599       O611   2.204       .  S
C600        O606   1.261       .  A
C600        O608   1.262       .  A
C600        C626   1.480       .  S
O601        C609   1.257   1_655  A
O602        C609   1.263       .  A
C603        O610   1.264   1_655  A
C603        O604   1.261       .  A
C603        C809   1.479       .  S
C605        O607   1.266   1_655  A
C605        O611   1.258       .  A
C605        C647   1.479       .  S
C609        C640   1.438       .  S
In612       O614   2.210       .  S
In612       O615   2.274       .  S
In612       O623   2.264       .  S
In612       O617   2.230       .  S
In612       O619   2.250       .  S
In612       O620   2.260       .  S
In612       O621   2.256       .  S
In612       O624   2.231       .  S
C613        O619   1.261       .  A
C613        O621   1.261       .  A
C613        C629   1.481       .  S
O614        C622   1.259       .  A
O615        C622   1.265       .  A
C616        O623   1.263       .  A
C616        O617   1.261       .  A
C616        C769   1.480       .  S
C618        O620   1.262       .  A
C618        O624   1.257       .  A
C618        C635   1.435       .  S
C622        C669   1.476       .  S
C625        C626   1.405       .  A
C625        C630   1.401       .  A
C625        H631   1.083       .  S
C626        C627   1.405       .  A
C627        C628   1.399       .  A
C627        H632   1.083       .  S
C628        C629   1.405       .  A
C628        H633   1.083       .  S
C629        C630   1.406       .  A
C630        H634   1.083       .  S
C635        C636   1.206       .  T
C637        C638   1.209       .  T
C639        C640   1.208       .  T
C641        C642   1.203       .  T
C643        C644   1.407   1_455  A
C643        C648   1.408       .  A
C643        H649   1.083       .  S
C644        C645   1.402       .  A
C645        C646   1.388       .  A
C645        H650   1.083       .  S
C646        C647   1.403       .  A
C646        H651   1.083       .  S
C647        C648   1.407   1_655  A
C648        H652   1.083       .  S
C653        C654   1.208       .  T
C655        C656   1.403       .  A
C655        C660   1.394       .  A
C655        H661   1.083       .  S
C656        C657   1.404       .  A
C657        C658   1.399       .  A
C657        H662   1.084       .  S
C658        C659   1.405       .  A
C658        H663   1.083       .  S
C659        C660   1.403       .  A
C660        H664   1.084       .  S
C665        C666   1.403       .  A
C665        C670   1.389       .  A
C665        H671   1.083       .  S
C666        C667   1.406       .  A
C667        C668   1.407       .  A
C667        H672   1.083       .  S
C668        C669   1.407       .  A
C668        H673   1.083       .  S
C669        C670   1.401       .  A
C670        H674   1.083       .  S
C675        C676   1.405       .  A
C675        C680   1.401       .  A
C675        H681   1.083       .  S
C676        C677   1.405       .  A
C677        C678   1.397       .  A
C677        H682   1.083       .  S
C678        C679   1.404       .  A
C678        H683   1.083       .  S
C679        C680   1.406       .  A
C680        H684   1.083       .  S
C685        C686   1.403       .  A
C685        C690   1.390       .  A
C685        H691   1.084       .  S
C686        C687   1.407       .  A
C687        C688   1.406       .  A
C687        H692   1.083       .  S
C688        C689   1.407       .  A
C688        H693   1.084       .  S
C689        C690   1.403       .  A
C690        H694   1.083       .  S
C695        C696   1.208       .  T
C697        C698   1.406   1_455  A
C697        C702   1.404       .  A
C697        H703   1.084       .  S
C698        C699   1.404       .  A
C699        C700   1.393       .  A
C699        H704   1.083       .  S
C700        C701   1.403       .  A
C700        H705   1.084       .  S
C701        C702   1.407   1_655  A
C702        H706   1.083       .  S
C707        C708   1.403       .  A
C707        C712   1.395       .  A
C707        H713   1.084       .  S
C708        C709   1.405       .  A
C709        C710   1.399       .  A
C709        H714   1.083       .  S
C710        C711   1.404       .  A
C710        H715   1.084       .  S
C711        C712   1.403       .  A
C712        H716   1.083       .  S
C717        C718   1.403       .  A
C717        C722   1.393       .  A
C717        H723   1.083       .  S
C718        C719   1.405       .  A
C719        C720   1.401       .  A
C719        H724   1.083       .  S
C720        C721   1.405       .  A
C720        H725   1.083       .  S
C721        C722   1.403       .  A
C722        H726   1.083       .  S
C727        C728   1.207       .  T
C729        C730   1.201       .  T
C731        C732   1.204       .  T
C733        C734   1.206       .  T
C735        C736   1.209       .  T
C737        C738   1.207       .  T
C739        C740   1.207       .  T
C741        C742   1.205       .  T
C743        C744   1.201       .  T
C745        C746   1.401       .  A
C745        C750   1.383       .  A
C745        H751   1.083       .  S
C746        C747   1.406       .  A
C747        C748   1.406       .  A
C747        H752   1.083       .  S
C748        C749   1.406       .  A
C748        H753   1.083       .  S
C749        C750   1.401       .  A
C750        H754   1.083       .  S
C755        C756   1.408       .  A
C755        C760   1.411       .  A
C755        H761   1.083       .  S
C756        C757   1.401       .  A
C757        C758   1.390       .  A
C757        H762   1.083       .  S
C758        C759   1.402       .  A
C758        H763   1.084       .  S
C759        C760   1.408       .  A
C760        H764   1.083       .  S
C765        C766   1.406       .  A
C765        C770   1.404       .  A
C765        H771   1.084       .  S
C766        C767   1.404       .  A
C767        C768   1.394       .  A
C767        H772   1.083       .  S
C768        C769   1.403       .  A
C768        H773   1.084       .  S
C769        C770   1.407       .  A
C770        H774   1.083       .  S
C775        C776   1.405       .  A
C775        C780   1.399       .  A
C775        H781   1.084       .  S
C776        C777   1.403       .  A
C777        C778   1.394       .  A
C777        H782   1.083       .  S
C778        C779   1.403       .  A
C778        H783   1.084       .  S
C779        C780   1.405       .  A
C780        H784   1.083       .  S
C785        C786   1.401       .  A
C785        C790   1.386       .  A
C785        H791   1.084       .  S
C786        C787   1.405       .  A
C787        C788   1.404       .  A
C787        H792   1.083       .  S
C788        C789   1.405       .  A
C788        H793   1.083       .  S
C789        C790   1.401       .  A
C790        H794   1.084       .  S
C795        C796   1.403       .  A
C795        C800   1.394       .  A
C795        H801   1.083       .  S
C796        C797   1.405       .  A
C797        C798   1.401       .  A
C797        H802   1.083       .  S
C798        C799   1.405       .  A
C798        H803   1.083       .  S
C799        C800   1.403       .  A
C800        H804   1.083       .  S
C805        C806   1.403       .  A
C805        C810   1.393       .  A
C805        H811   1.083       .  S
C806        C807   1.406   1_655  A
C807        C808   1.405       .  A
C807        H812   1.084       .  S
C808        C809   1.407   1_455  A
C808        H813   1.083       .  S
C809        C810   1.403       .  A
C810        H814   1.084       .  S
C815        C816   1.402   1_655  A
C815        C820   1.388       .  A
C815        H821   1.084       .  S
C816        C817   1.409       .  A
C817        C818   1.412       .  A
C817        H822   1.083       .  S
C818        C819   1.409       .  A
C818        H823   1.083       .  S
C819        C820   1.402   1_455  A
C820        H824   1.084       .  S
C825        C826   1.404       .  A
C825        C830   1.398       .  A
C825        H831   1.084       .  S
C826        C827   1.404       .  A
C827        C828   1.395       .  A
C827        H832   1.083       .  S
C828        C829   1.403       .  A
C828        H833   1.084       .  S
C829        C830   1.405       .  A
C830        H834   1.083       .  S
C835        C836   1.205       .  T
C837        C838   1.201       .  T
C839        C840   1.207       .  T
C841        C842   1.208       .  T
C843        C844   1.202       .  T
C845        C846   1.208       .  T
C847        C848   1.206       .  T
C849        C850   1.205       .  T
C851        C852   1.201       .  T
C853        C854   1.207   1_556  T
C855        C856   1.206   1_556  T
C857        C858   1.203       .  T
C859        C860   1.208       .  T
C861        C862   1.405       .  A
C861        C866   1.399       .  A
C861        H867   1.083       .  S
C862        C863   1.403       .  A
C863        C864   1.393       .  A
C863        H868   1.084       .  S
C864        C865   1.403       .  A
C864        H869   1.083       .  S
C865        C866   1.405       .  A
C866        H870   1.084       .  S
C871        C872   1.405       .  A
C871        C876   1.401       .  A
C871        H877   1.083       .  S
C872        C873   1.403       .  A
C873        C874   1.392       .  A
C873        H878   1.083       .  S
C874        C875   1.403       .  A
C874        H879   1.083       .  S
C875        C876   1.405       .  A
C876        H880   1.083       .  S
C881        C882   1.208       .  T
C883        C884   1.405       .  A
C883        C888   1.400       .  A
C883        H889   1.083       .  S
C884        C885   1.403       .  A
C885        C886   1.394       .  A
C885        H890   1.084       .  S
C886        C887   1.404       .  A
C886        H891   1.083       .  S
C887        C888   1.405       .  A
C888        H892   1.084       .  S
C893        C894   1.203   1_556  T
C895        C896   1.207       .  T
C897        C898   1.201       .  T
C899        C900   1.203       .  T
C901        C902   1.207       .  T
C903        C904   1.201       .  T
C905        C906   1.206       .  T
C907        C908   1.207       .  T
C909        C910   1.203       .  T
C911        C912   1.401       .  A
C911        C916   1.383       .  A
C911        H917   1.083       .  S
C912        C913   1.406       .  A
C913        C914   1.406       .  A
C913        H918   1.083       .  S
C914        C915   1.406       .  A
C914        H919   1.083       .  S
C915        C916   1.401       .  A
C916        H920   1.083       .  S
C921        C922   1.402       .  A
C921        C926   1.390       .  A
C921        H927   1.084       .  S
C922        C923   1.408       .  A
C923        C924   1.411       .  A
C923        H928   1.083       .  S
C924        C925   1.408       .  A
C924        H929   1.083       .  S
C925        C926   1.402       .  A
C926        H930   1.084       .  S
C931        C932   1.208       .  T
C933        C934   1.405       .  A
C933        C938   1.400       .  A
C933        H939   1.083       .  S
C934        C935   1.403       .  A
C935        C936   1.394       .  A
C935        H940   1.084       .  S
C936        C937   1.403       .  A
C936        H941   1.083       .  S
C937        C938   1.405       .  A
C938        H942   1.084       .  S
C943        C944   1.402       .  A
C943        C948   1.386       .  A
C943        H949   1.084       .  S
C944        C945   1.409       .  A
C945        C946   1.413       .  A
C945        H950   1.083   1_455  S
C946        C947   1.409       .  A
C946        H951   1.083   1_455  S
C947        C948   1.402       .  A
C948        H952   1.084       .  S
C953        C954   1.208       .  T
C955        C956   1.407       .  A
C955        C960   1.406       .  A
C955        H961   1.083       .  S
C956        C957   1.401       .  A
C957        C958   1.383       .  A
C957        H962   1.083       .  S
C958        C959   1.401       .  A
C958        H963   1.083       .  S
C959        C960   1.406       .  A
C960        H964   1.083       .  S
C965        C966   1.405       .  A
C965        C970   1.399       .  A
C965        H971   1.084       .  S
C966        C967   1.403       .  A
C967        C968   1.394       .  A
C967        H972   1.083       .  S
C968        C969   1.403       .  A
C968        H973   1.084       .  S
C969        C970   1.405       .  A
C970        H974   1.083       .  S
C975        C976   1.403       .  A
C975        C980   1.393       .  A
C975        H981   1.083       .  S
C976        C977   1.405       .  A
C977        C978   1.401       .  A
C977        H982   1.083       .  S
C978        C979   1.405       .  A
C978        H983   1.083       .  S
C979        C980   1.403       .  A
C980        H984   1.083       .  S
C985        C986   1.203       .  T
C987        C988   1.207       .  T
C989        C990   1.202       .  T
C991        C992   1.203       .  T
C993        C994   1.206       .  T
C995        C996   1.200       .  T
C997        C998   1.403   1_565  A
C997       C1002   1.394       .  A
C997       H1003   1.084       .  S
C998        C999   1.407       .  A
C999       C1000   1.405       .  A
C999       H1004   1.083       .  S
C1000      C1001   1.406       .  A
C1000      H1005   1.084       .  S
C1001      C1002   1.404   1_545  A
C1002      H1006   1.083       .  S
C1007      C1008   1.405       .  A
C1007      C1012   1.401       .  A
C1007      H1013   1.083       .  S
C1008      C1009   1.405       .  A
C1009      C1010   1.399       .  A
C1009      H1014   1.083       .  S
C1010      C1011   1.405       .  A
C1010      H1015   1.083       .  S
C1011      C1012   1.406       .  A
C1012      H1016   1.083       .  S
C1017      C1018   1.403       .  A
C1017      C1022   1.393       .  A
C1017      H1023   1.084       .  S
C1018      C1019   1.407       .  A
C1019      C1020   1.404       .  A
C1019      H1024   1.083   1_455  S
C1020      C1021   1.406       .  A
C1020      H1025   1.084   1_455  S
C1021      C1022   1.404       .  A
C1022      H1026   1.083       .  S
C1027      C1028   1.206       .  T
C1029      C1030   1.205       .  T
C1031      C1032   1.206       .  T
C1033      C1034   1.206       .  T
C1035      C1036   1.209       .  T
C1037      C1038   1.204       .  T
C1039      C1040   1.206       .  T
C1041      C1042   1.402       .  A
C1041      C1046   1.387       .  A
C1041      H1047   1.083       .  S
C1042      C1043   1.407       .  A
C1043      C1044   1.408       .  A
C1043      H1048   1.083   1_455  S
C1044      C1045   1.407       .  A
C1044      H1049   1.083   1_455  S
C1045      C1046   1.402       .  A
C1046      H1050   1.083       .  S
C1051      C1052   1.407       .  A
C1051      C1056   1.404       .  A
C1051      H1057   1.083   1_455  S
C1052      C1053   1.403       .  A
C1053      C1054   1.393       .  A
C1053      H1058   1.084       .  S
C1054      C1055   1.404       .  A
C1054      H1059   1.083       .  S
C1055      C1056   1.406       .  A
C1056      H1060   1.084   1_455  S
C1061      C1062   1.406       .  A
C1061      C1066   1.406       .  A
C1061      H1067   1.083       .  S
C1062      C1063   1.402       .  A
C1063      C1064   1.390       .  A
C1063      H1068   1.083       .  S
C1064      C1065   1.401       .  A
C1064      H1069   1.083       .  S
C1065      C1066   1.406       .  A
C1066      H1070   1.083       .  S
C1071      C1072   1.405       .  A
C1071      C1076   1.398       .  A
C1071      H1077   1.083       .  S
C1072      C1073   1.405       .  A
C1073      C1074   1.400       .  A
C1073      H1078   1.083       .  S
C1074      C1075   1.405       .  A
C1074      H1079   1.083       .  S
C1075      C1076   1.405       .  A
C1076      H1080   1.083       .  S
C1081      C1082   1.403   1_565  A
C1081      C1086   1.390       .  A
C1081      H1087   1.084       .  S
C1082      C1083   1.407       .  A
C1083      C1084   1.407       .  A
C1083      H1088   1.083       .  S
C1084      C1085   1.407       .  A
C1084      H1089   1.084       .  S
C1085      C1086   1.403   1_545  A
C1086      H1090   1.083       .  S
C1091      C1092   1.206       .  T
C1093      C1094   1.205       .  T
C1095      C1096   1.206       .  T
C1097      C1098   1.207       .  T
C1099      C1100   1.204       .  T
C1101      C1102   1.209       .  T
C1103      C1104   1.206       .  T
