geometry optimzed in LAMMPS
_audit_creation_date              2020-11-30 
_audit_creation_method            'lammps2cif' 
_symmetry_space_group_name_H-M    'P1' 
_symmetry_Int_Tables_number       1 
_symmetry_cell_setting            triclinic 
loop_ 
_symmetry_equiv_pos_as_xyz 
  x,y,z 
_cell_length_a                    28.41860142 
_cell_length_b                    28.68796961122033 
_cell_length_c                    33.48111468270514 
_cell_angle_alpha                 90.62851407738515 
_cell_angle_beta                  89.20203926656521 
_cell_angle_gamma                 119.4367701617595 
loop_ 
_atom_site_label 
_atom_site_type_symbol 
_atom_site_fract_x 
_atom_site_fract_y 
_atom_site_fract_z 
_atom_site_charge 
C1          C  0.04060430  0.43854935  0.12045877     0.03400
C2          C  0.07021186  0.41126035  0.12693924    -0.12700
C3          C  0.09254089  0.41355738  0.16550784     0.00900
C4          C  0.09276379  0.45065022  0.19315974    -0.11200
C5          C  0.07556495  0.98605915  0.18130373     0.03400
C6          C  0.04046852  0.97266257  0.14984312    -0.10700
H7          H  0.07461293  0.38786989  0.10309358     0.09000
H8          H  0.10924799  0.45485145  0.22243567     0.06500
H9          H  0.02437252  0.99919277  0.14365395     0.06400
C10         C  0.24407065  0.25859177  0.24464816     0.03400
C11         C  0.21746428  0.28816371  0.23573968    -0.12700
C12         C  0.19867320  0.28687906  0.19600679     0.00900
C13         C  0.19882104  0.24888371  0.16931575    -0.11200
C14         C  0.21395236  0.21227808  0.18244611     0.03400
C15         C  0.24648697  0.22487216  0.21554879    -0.10700
H16         H  0.21246564  0.31229330  0.25869563     0.09000
H17         H  0.18305534  0.24433953  0.13966863     0.06500
H18         H  0.26162704  0.19798669  0.22343263     0.06400
C19         C  0.05818646  0.15573086  0.12510621     0.03400
C20         C  0.08513618  0.21209053  0.13057262    -0.12700
C21         C  0.08371220  0.23399423  0.16878947     0.00900
C22         C  0.04692629  0.19917426  0.19737392    -0.11200
C23         C  0.51132279  0.14597989  0.18740347     0.03400
C24         C  0.52488953  0.12324632  0.15588068    -0.10700
H25         H  0.10843243  0.23820488  0.10627005     0.09000
H26         H  0.04336673  0.21320907  0.22654311     0.06500
H27         H  0.49881768  0.08071552  0.15052576     0.06400
C28         C  0.23100808  0.03831616  0.24469779     0.03400
C29         C  0.26664080  0.07386960  0.21640993    -0.12700
C30         C  0.28162068  0.05421960  0.18351867     0.00900
C31         C  0.24661350  0.50341156  0.17012582    -0.11200
C32         C  0.20752404  0.46548899  0.19590811     0.03400
C33         C  0.20404596  0.48290671  0.23560557    -0.10700
H34         H  0.29307102  0.11531661  0.22506008     0.09000
H35         H  0.25294048  0.49261650  0.14053063     0.06500
H36         H  0.17976241  0.45394663  0.25815982     0.06400
C37         C  0.45122002  0.24320472  0.22886537     0.03400
C38         C  0.41679308  0.24012946  0.19847402    -0.12700
C39         C  0.43797062  0.27628890  0.16717085     0.00900
C40         C  0.99212376  0.29498221  0.15628460    -0.11200
C41         C  0.02869729  0.29703140  0.18502752     0.03400
C42         C  0.00753267  0.27594764  0.22337586    -0.10700
H43         H  0.37383366  0.22205272  0.20506538     0.09000
H44         H  0.00565017  0.31220484  0.12719315     0.06500
H45         H  0.03452771  0.28336638  0.24812310     0.06400
C46         C  0.34027114  0.45547618  0.12665022     0.03400
C47         C  0.28367727  0.42587540  0.13340863    -0.12700
C48         C  0.26308591  0.40320777  0.17182536     0.00900
C49         C  0.29959957  0.40230256  0.19924649    -0.11200
C50         C  0.35303186  0.41947579  0.18763138     0.03400
C51         C  0.37444409  0.45486824  0.15606250    -0.10700
H52         H  0.25627851  0.42252724  0.10997622     0.09000
H53         H  0.28622979  0.38390977  0.22798394     0.06500
H54         H  0.41715019  0.47120728  0.14932348     0.06400
C55         C  0.11943812  0.38129095  0.17599215     0.02600
C56         C  0.08862947  0.32424561  0.17699634     0.02600
C57         C  0.11551820  0.29332851  0.17737102     0.02600
C58         C  0.17252409  0.31934599  0.18387158     0.02600
C59         C  0.20343821  0.37639562  0.18154010     0.02600
C60         C  0.17640398  0.40724695  0.18322136     0.02600
O61         O  0.37736787  0.16446149  0.41516718    -0.78200
C62         C  0.39422439  0.32237883  0.40320284     0.82900
O63         O  0.18969227  0.12400091  0.39294631    -0.79300
O64         O  0.31386525  0.27204374  0.28759443    -0.80800
O65         O  0.39385893  0.17675420  0.27514702    -0.80600
O66         O  0.39085613  0.12163000  0.36434858    -0.79200
Zn67       Zn  0.33257594  0.19759600  0.40330041     1.55700
O68         O  0.42586251  0.26308056  0.29028376    -0.80600
Cd69       Cd  0.34461366  0.13762440  0.32461371     1.59700
Cd70       Cd  0.23770516  0.15378671  0.33790445     1.59600
O71         O  0.27978279  0.06626453  0.30420982    -0.80600
O72         O  0.31848413  0.18663281  0.34821247    -1.91100
Cd73       Cd  0.36413236  0.25984844  0.32516693     1.59900
O74         O  0.21885615  0.09244665  0.29404632    -0.80600
O75         O  0.39853511  0.32323167  0.36534520    -0.79200
C76         C  0.21051788  0.13111627  0.42786499     0.83300
C77         C  0.39927822  0.13856684  0.40020333     0.83000
O78         O  0.37156444  0.27772228  0.42184914    -0.78200
C79         C  0.42507050  0.22648367  0.26810156     0.83800
O80         O  0.26174441  0.15780226  0.43147266    -0.78300
C81         C  0.23954405  0.06262529  0.28518716     0.83900
C82         C  0.26277336  0.25143414  0.28389397     0.84200
O83         O  0.22881234  0.21320562  0.30635825    -0.80700
C84         C  0.33585607  0.47140596  0.60961481     0.03400
C85         C  0.36348017  0.46617961  0.57574706    -0.12700
C86         C  0.38827091  0.00869151  0.54773568     0.00900
C87         C  0.37250678  0.04828771  0.55101957    -0.11200
C88         C  0.34706571  0.05336798  0.58557616     0.03400
C89         C  0.33947438  0.52067226  0.61808845    -0.10700
H90         H  0.36449290  0.42935192  0.57063798     0.09000
H91         H  0.37351176  0.07092393  0.52527554     0.06500
H92         H  0.31798479  0.52405757  0.64412875     0.06400
C93         C  0.17893529  0.10966240  0.46669997     0.03400
C94         C  0.21095072  0.12026416  0.50079799    -0.12700
C95         C  0.18898590  0.10343662  0.53856029     0.00900
C96         C  0.13394689  0.08236316  0.54454236    -0.11200
C97         C  0.09866959  0.06386380  0.51205887     0.03400
C98         C  0.12166797  0.07864687  0.47237620    -0.10700
H99         H  0.25430880  0.13738714  0.49813173     0.09000
H100        H  0.11934007  0.08017297  0.57477592     0.06500
H101        H  0.09531410  0.06865488  0.44690872     0.06400
C102        C  0.09210319  0.22072592  0.56704182     0.03400
C103        C  0.11708902  0.25052083  0.53243540    -0.12700
C104        C  0.11815107  0.22636819  0.49649998     0.00900
C105        C  0.08913460  0.17115903  0.49262821    -0.11200
C106        C  0.06089453  0.13959272  0.52538872     0.03400
C107        C  0.06361891  0.16416187  0.56334889    -0.10700
H108        H  0.14148155  0.29374987  0.53386463     0.09000
H109        H  0.08911571  0.15285950  0.46416938     0.06500
H110        H  0.04226271  0.13968761  0.58888259     0.06400
C111        C  0.39525035  0.36978073  0.42263065     0.03400
C112        C  0.34749013  0.37016013  0.41496760    -0.12700
C113        C  0.32356423  0.38370228  0.44558231     0.00900
C114        C  0.35545954  0.41735790  0.47605394    -0.11200
C115        C  0.41047981  0.43161346  0.47955120     0.03400
C116        C  0.42919775  0.40311562  0.45407116    -0.10700
H117        H  0.32116045  0.34439702  0.39146464     0.09000
H118        H  0.33545171  0.42828891  0.49888650     0.06500
H119        H  0.46800296  0.40579488  0.45906064     0.06400
C120        C  0.03999027  0.42071673  0.60704121     0.03400
C121        C  0.99654575  0.36911200  0.60419697    -0.12700
C122        C  0.46424244  0.35509327  0.57084030     0.00900
C123        C  0.46100827  0.39405798  0.54918136    -0.11200
C124        C  0.50193553  0.44789973  0.55088506     0.03400
C125        C  0.04244942  0.46056960  0.58073927    -0.10700
H126        H  0.99733627  0.33719414  0.62086555     0.09000
H127        H  0.43050415  0.37923892  0.52682468     0.06500
H128        H  0.07555742  0.49948619  0.58422068     0.06400
C129        C  0.44246226  0.13950868  0.42447436     0.03400
C130        C  0.47448979  0.19042326  0.44076751    -0.12700
C131        C  0.47715177  0.19406651  0.48187942     0.00900
C132        C  0.46899463  0.15082396  0.50442636    -0.11200
C133        C  0.45750402  0.10324385  0.48541197     0.03400
C134        C  0.43734699  0.09478956  0.44583436    -0.10700
H135        H  0.48008966  0.22533991  0.42438075     0.09000
H136        H  0.97199034  0.15430489  0.53666397     0.06500
H137        H  0.41717106  0.05504135  0.43282850     0.06400
C138        C  0.49795623  0.48751228  0.52264506     0.02600
C139        C  0.44398496  0.47430442  0.51069955     0.02600
C140        C  0.42932776  0.01381097  0.51606971     0.02600
C141        C  0.46931484  0.06571755  0.50723938     0.02600
C142        C  0.02276652  0.08182540  0.51791812     0.02600
C143        C  0.03946426  0.04314683  0.52030852     0.02600
C144        C  0.20937893  0.27048822  0.78846400     0.03400
C145        C  0.20950113  0.30747575  0.81596472    -0.12700
C146        C  0.24271960  0.32189592  0.84907565     0.00900
C147        C  0.25966895  0.28667284  0.86263177    -0.11200
C148        C  0.26025158  0.24820497  0.83661933     0.03400
C149        C  0.23870407  0.24380803  0.79761244    -0.10700
H150        H  0.19473248  0.33415235  0.80673351     0.09000
H151        H  0.27668236  0.29306256  0.89193581     0.06500
H152        H  0.24431173  0.21970403  0.77494827     0.06400
C153        C  0.41246746  0.09513032  0.91237014     0.03400
C154        C  0.38667856  0.12482791  0.90248173    -0.12700
C155        C  0.36964451  0.12404060  0.86251051     0.00900
C156        C  0.37103006  0.08638447  0.83584125    -0.11200
C157        C  0.38530134  0.04905103  0.84941966     0.03400
C158        C  0.41504128  0.06047423  0.88406952    -0.10700
H159        H  0.38050225  0.14851795  0.92518886     0.09000
H160        H  0.35706722  0.08272573  0.80569484     0.06500
H161        H  0.42860350  0.53297213  0.89341121     0.06400
C162        C  0.23346004  0.99553513  0.79339016     0.03400
C163        C  0.25905996  0.05141423  0.80041938    -0.12700
C164        C  0.25426951  0.07106440  0.83866195     0.00900
C165        C  0.21507234  0.03453957  0.86515925    -0.11200
C166        C  0.18075797  0.98209596  0.85265793     0.03400
C167        C  0.19623857  0.46052955  0.82180109    -0.10700
H168        H  0.28281272  0.07896659  0.77693673     0.09000
H169        H  0.20779478  0.04694565  0.89384829     0.06500
H170        H  0.17057752  0.41858111  0.81403528     0.06400
C171        C  0.39879203  0.37520584  0.91117833     0.03400
C172        C  0.43346515  0.41092281  0.88262527    -0.12700
C173        C  0.45002497  0.39130708  0.85073287     0.00900
C174        C  0.41577859  0.33941855  0.83715916    -0.11200
C175        C  0.37658659  0.30184630  0.86305711     0.08800
C176        C  0.37224409  0.31961632  0.90231925    -0.10700
H177        H  0.95893893  0.45272382  0.89087962     0.09000
H178        H  0.42358514  0.32776502  0.80829329     0.06500
H179        H  0.34829886  0.29091405  0.92512331     0.06400
C180        C  0.12443026  0.08549169  0.91009836     0.03400
C181        C  0.08865714  0.08000134  0.87997319    -0.12700
C182        C  0.10830356  0.11291131  0.84686938     0.00900
C183        C  0.16163575  0.13099670  0.83493183    -0.11200
C184        C  0.19943270  0.13387395  0.86270205     0.03400
C185        C  0.18072303  0.11562354  0.90230496    -0.10700
H186        H  0.04591626  0.06260747  0.88725899     0.09000
H187        H  0.17365446  0.14646892  0.80520681     0.06500
H188        H  0.20922203  0.12283957  0.92591050     0.06400
C189        C  0.01087236  0.28669115  0.79272550     0.03400
C190        C  0.45419242  0.26020262  0.79973663    -0.12700
C191        C  0.43298834  0.23982813  0.83858323     0.00900
C192        C  0.46862148  0.23896325  0.86675675    -0.11200
C193        C  0.02189697  0.25460199  0.85589866     0.03400
C194        C  0.04441941  0.28725982  0.82287313    -0.10700
H195        H  0.42726997  0.25660809  0.77586862     0.09000
H196        H  0.45445049  0.22173189  0.89579574     0.06500
H197        H  0.08690375  0.30189546  0.81608994     0.06400
C198        C  0.28837438  0.21722528  0.84815080     0.02600
C199        C  0.34587578  0.24366448  0.85128897     0.02600
C200        C  0.37328734  0.21312490  0.84807283     0.02600
C201        C  0.34285479  0.15611894  0.85097302     0.02600
C202        C  0.28544560  0.12983964  0.84866200     0.02600
C203        C  0.25833113  0.16045346  0.85163452     0.02600
O204        O  0.97346984  0.94651884  0.08588980    -0.78200
C205        C  0.05311594  0.12689418  0.08699032     0.82900
O206        O  0.35130176  0.45806168  0.05467323    -0.79300
O207        O  0.47705979  0.11138722  0.96171103    -0.80800
O208        O  0.07218090  0.01960424  0.95782204    -0.80600
O209        O  0.04079681  0.95181423  0.04920597    -0.79200
Zn210      Zn  0.47813003  0.01621301  0.06995247     1.55700
O211        O  0.09046423  0.10433499  0.96859894    -0.80600
Cd212      Cd  0.01098673  0.97330690  0.99907236     1.59700
Cd213      Cd  0.39990621  0.48720809  0.00218001     1.59600
O214        O  0.95042683  0.40662359  0.96903728    -0.80600
O215        O  0.47801114  0.01818210  0.01518634    -1.91100
Cd216      Cd  0.52348653  0.09554261  0.00157858     1.59900
O217        O  0.38384921  0.42630711  0.96041281    -0.80600
O218        O  0.04468892  0.14326243  0.05394660    -0.79200
C219        C  0.36792367  0.48091284  0.08852854     0.83300
C220        C  0.01532807  0.94137405  0.08248221     0.83000
O221        O  0.54631186  0.07969308  0.08963593    -0.78200
C222        C  0.09829106  0.06964473  0.94970136     0.83800
O223        O  0.41493032  0.52133556  0.09136572    -0.78300
C224        C  0.40784887  0.39975526  0.95123364     0.83900
C225        C  0.42690634  0.08689591  0.95268382     0.84200
O226        O  0.39165196  0.04481901  0.97090982    -0.80700
O227        O  0.12833014  0.30329781  0.60077498    -0.78200
C228        C  0.08593465  0.42304000  0.62942951     0.82900
O229        O  0.28941242  0.41472888  0.66318613    -0.79300
O230        O  0.19154666  0.47105024  0.73118685    -0.80800
O231        O  0.03704818  0.27339865  0.72745951    -0.80600
O232        O  0.08600381  0.23231545  0.64001437    -0.79200
Zn233      Zn  0.16184891  0.37389153  0.62721608     1.55700
O234        O  0.07320784  0.35694954  0.75182341    -0.80600
Cd235      Cd  0.10449552  0.27909658  0.69478501     1.59700
Cd236      Cd  0.22785220  0.37955815  0.70430545     1.59600
O237        O  0.14447556  0.25879156  0.73911714    -0.80600
O238        O  0.15455369  0.35755218  0.68230141    -1.91100
Cd239      Cd  0.12692683  0.40300717  0.70699977     1.59900
O240        O  0.23179406  0.31552784  0.72786905    -0.80600
O241        O  0.08381726  0.42279300  0.66742847    -0.79200
C242        C  0.28692564  0.42767298  0.62750351     0.83300
C243        C  0.10144743  0.25270959  0.60502970     0.83000
O244        O  0.11792203  0.41074622  0.61068313    -0.78200
C245        C  0.03876272  0.30700694  0.75387291     0.83800
O246        O  0.24179083  0.41496172  0.61094910    -0.78300
C247        C  0.19443364  0.27780555  0.74785242     0.83900
C248        C  0.22598394  0.46958836  0.75435322     0.84200
O249        O  0.24183048  0.43512043  0.74985156    -0.80700
C250        C  0.11212318  0.19545199  0.87140197    -0.26000
C251        C  0.08815876  0.15114553  0.84518093    -0.14100
C252        C  0.03958375  0.13869245  0.82619770     0.36500
C253        C  0.01607429  0.17062665  0.83397621    -0.25500
C254        C  0.04026163  0.21522756  0.85983294    -0.14700
C255        C  0.08870456  0.22754038  0.87904419     0.37600
N256        N  0.11517111  0.27213453  0.90601654    -0.89000
H257        H  0.14850605  0.20397030  0.88726851     0.18700
H258        H  0.98012511  0.16253463  0.81770219     0.18700
N259        N  0.01355658  0.09469595  0.79869269    -0.88000
H260        H  0.11641283  0.25689896  0.93397250     0.36100
H261        H  0.09291703  0.29194909  0.91000686     0.41200
H262        H  0.03581705  0.07493494  0.79446254     0.40800
H263        H  0.01253349  0.11048052  0.77092353     0.35700
C264        C  0.08996375  0.42513032  0.88319942    -0.26000
C265        C  0.12121928  0.46115650  0.85371672    -0.14100
C266        C  0.09607433  0.47175820  0.82130455     0.36500
C267        C  0.03973165  0.44690967  0.81985366    -0.25500
C268        C  0.00847314  0.41127993  0.84955663    -0.14700
C269        C  0.03363162  0.39995818  0.88158968     0.37600
N270        N  0.00183381  0.36430756  0.91310924    -0.89000
H271        H  0.10955903  0.41615475  0.90710651     0.18700
H272        H  0.52014644  0.45569735  0.79583933     0.18700
N273        N  0.12790171  0.50605668  0.78915594    -0.88000
H274        H  0.02649249  0.36092163  0.93441927     0.36100
H275        H  0.97863827  0.32633615  0.90070965     0.41200
H276        H  0.15163204  0.54435770  0.80077889     0.40800
H277        H  0.10322781  0.50906098  0.76762330     0.35700
C278        C  0.32804341  0.40130803  0.82938815    -0.26000
C279        C  0.28020254  0.37985712  0.85251709    -0.14100
C280        C  0.26544193  0.41464256  0.87161707     0.36500
C281        C  0.29907455  0.46987130  0.86795299    -0.25500
C282        C  0.34680188  0.49140144  0.84467706    -0.14700
C283        C  0.36167565  0.45654707  0.82574125     0.37600
N284        N  0.41019992  0.97594928  0.80250237    -0.89000
H285        H  0.33880082  0.37471842  0.81348687     0.18700
H286        H  0.28871573  0.49642735  0.88431824     0.18700
N287        N  0.21674143  0.39492550  0.89480675    -0.88000
H288        H  0.44257415  0.99769515  0.82166808     0.36100
H289        H  0.41030048  0.00169362  0.78059895     0.41200
H290        H  0.21768894  0.37026658  0.91716810     0.40800
H291        H  0.18407710  0.37179311  0.87619649     0.35700
C292        C  0.51829312  0.28496944  0.50662240    -0.26000
C293        C  0.47225648  0.23623717  0.50135438    -0.14100
C294        C  0.42142137  0.22744734  0.51476035     0.36500
C295        C  0.41841829  0.26614346  0.53845669    -0.25500
C296        C  0.46563046  0.31393250  0.54621918    -0.14700
C297        C  0.01520679  0.32479204  0.52788110     0.37600
N298        N  0.06227598  0.37652865  0.53022926    -0.89000
H299        H  0.05659420  0.29205450  0.49442908     0.18700
H300        H  0.37982927  0.25933895  0.55021498     0.18700
N301        N  0.37327285  0.18012689  0.50308730    -0.88000
H302        H  0.09382114  0.37168152  0.54129023     0.36100
H303        H  0.07299410  0.39149028  0.50122366     0.41200
H304        H  0.35246935  0.16016955  0.52874949     0.40800
H305        H  0.34917284  0.19205283  0.48780932     0.35700
C306        C  0.21004511  0.25261538  0.48017410    -0.26000
C307        C  0.16505761  0.25768130  0.47096049    -0.14100
C308        C  0.17138507  0.30293898  0.45025763     0.36500
C309        C  0.22376555  0.34492175  0.44210539    -0.25500
C310        C  0.26864902  0.34187688  0.45535379    -0.14700
C311        C  0.26184562  0.29476678  0.47369533     0.37600
N312        N  0.30774468  0.29043547  0.48638576    -0.89000
H313        H  0.20473890  0.21814505  0.49684209     0.18700
H314        H  0.22964716  0.38020719  0.42635157     0.18700
N315        N  0.12476362  0.30658721  0.43903630    -0.88000
H316        H  0.29567260  0.25236693  0.49778620     0.36100
H317        H  0.32584630  0.31743341  0.50993717     0.41200
H318        H  0.10289445  0.27562140  0.41874351     0.40800
H319        H  0.13638358  0.34248250  0.42405449     0.35700
C320        C  0.26353790  0.12360939  0.58574418    -0.26000
C321        C  0.21919940  0.08594205  0.56355482    -0.14100
C322        C  0.21513918  0.03633453  0.55308207     0.36500
C323        C  0.25748679  0.02729161  0.56174117    -0.25500
C324        C  0.30383036  0.06646725  0.58060821    -0.14700
C325        C  0.30596828  0.11361102  0.59517509     0.37600
N326        N  0.35213720  0.15197932  0.61714453    -0.89000
H327        H  0.26698226  0.16210538  0.59279512     0.18700
H328        H  0.25559934  0.99022849  0.55198392     0.18700
N329        N  0.17125998  0.99833260  0.52894374    -0.88000
H330        H  0.34775808  0.18507705  0.62486178     0.36100
H331        H  0.38593836  0.16600659  0.59826989     0.41200
H332        H  0.13643860  0.98291884  0.54657220     0.40800
H333        H  0.17662560  0.96585843  0.52111104     0.35700
C334        C  0.44417386  0.35910306  0.19510981    -0.26000
C335        C  0.41838490  0.31533010  0.16858621    -0.14100
C336        C  0.36855495  0.30370874  0.15209740     0.36500
C337        C  0.34628410  0.33628955  0.16142412    -0.25500
C338        C  0.37221309  0.38023858  0.18761107    -0.14700
C339        C  0.42188167  0.39180249  0.20439380     0.37600
N340        N  0.45050797  0.43656746  0.23056583    -0.89000
H341        H  0.48128614  0.36705399  0.20954968     0.18700
H342        H  0.30913440  0.32831444  0.14701010     0.18700
N343        N  0.33950528  0.25882019  0.12618581    -0.88000
H344        H  0.42476036  0.43333028  0.25426986     0.36100
H345        H  0.46028201  0.47133949  0.21471222     0.41200
H346        H  0.32881607  0.22422537  0.14248005     0.40800
H347        H  0.36515871  0.26115656  0.10267595     0.35700
C348        C  0.36338814  0.05701551  0.21003278    -0.26000
C349        C  0.34015571  0.07411641  0.18065602    -0.14100
C350        C  0.37338173  0.11671330  0.15559035     0.36500
C351        C  0.42948569  0.14226697  0.16072326    -0.25500
C352        C  0.45278152  0.12586283  0.19052115    -0.14700
C353        C  0.41955087  0.08256020  0.21517125     0.37600
N354        N  0.44288931  0.06554728  0.24561347    -0.89000
H355        H  0.33724258  0.02473063  0.22989609     0.18700
H356        H  0.45556767  0.17415375  0.14055574     0.18700
N357        N  0.35003227  0.13305487  0.12475074    -0.88000
H358        H  0.41273235  0.03254372  0.26089895     0.36100
H359        H  0.96756648  0.05271713  0.23157337     0.41200
H360        H  0.32477855  0.64499155  0.13851767     0.40800
H361        H  0.38002330  0.16649116  0.10976458     0.35700
C362        C  0.18357450  0.12394579  0.15117642    -0.26000
C363        C  0.17505336  0.15502882  0.17937540    -0.14100
C364        C  0.13557898  0.13003911  0.21000936     0.36500
C365        C  0.10516343  0.07439268  0.21169514    -0.25500
C366        C  0.11394515  0.04337209  0.18371527    -0.14700
C367        C  0.15302817  0.06821346  0.15287838     0.37600
N368        N  0.16042951  0.03679698  0.12248702    -0.89000
H369        H  0.21460846  0.14286517  0.12837297     0.18700
H370        H  0.07413979  0.05543549  0.23450544     0.18700
N371        N  0.12788862  0.16111485  0.24051702    -0.88000
H372        H  0.20117649  0.04718907  0.12176010     0.36100
H373        H  0.15143696  0.04731807  0.09497183     0.41200
H374        H  0.13695875  0.15040120  0.26789997     0.40800
H375        H  0.08699295  0.14996449  0.24161457     0.35700
C376        C  0.03991448  0.93782030  0.12025794     0.03400
C377        C  0.06941599  0.91045596  0.12677843    -0.12700
C378        C  0.09183255  0.91289904  0.16531615     0.00900
C379        C  0.09230616  0.95023150  0.19285035    -0.11200
C380        C  0.07599107  0.48647600  0.18168315     0.03400
C381        C  0.04092215  0.47312859  0.15019514    -0.10700
H382        H  0.07372435  0.88695686  0.10297203     0.09000
H383        H  0.10889862  0.95456207  0.22209522     0.06500
H384        H  0.02476160  0.49962849  0.14409374     0.06400
C385        C  0.24460245  0.75891831  0.24444922     0.03400
C386        C  0.21705239  0.78769364  0.23585094    -0.12700
C387        C  0.19808822  0.78638707  0.19616664     0.00900
C388        C  0.19870013  0.74876755  0.16933128    -0.11200
C389        C  0.21467197  0.71270682  0.18223702     0.03400
C390        C  0.24772405  0.72586502  0.21508237    -0.10700
H391        H  0.21165700  0.81140218  0.25895217     0.09000
H392        H  0.18275765  0.74408441  0.13973209     0.06500
H393        H  0.26361644  0.69951689  0.22270191     0.06400
C394        C  0.05826014  0.65574484  0.12472166     0.03400
C395        C  0.08489806  0.71201735  0.13039030    -0.12700
C396        C  0.08338398  0.73354481  0.16871637     0.00900
C397        C  0.04697713  0.69846824  0.19733561    -0.11200
C398        C  0.51152486  0.64532141  0.18720035     0.03400
C399        C  0.52510180  0.62292885  0.15542767    -0.10700
H400        H  0.10810605  0.73836912  0.10616950     0.09000
H401        H  0.04322945  0.71241256  0.22650611     0.06500
H402        H  0.49916389  0.58042626  0.14988780     0.06400
C403        C  0.23113441  0.53852551  0.24509636     0.03400
C404        C  0.26679119  0.57429621  0.21691706    -0.12700
C405        C  0.28189319  0.55487806  0.18394864     0.00900
C406        C  0.24623030  0.00269472  0.16983646    -0.11200
C407        C  0.20696985  0.96497459  0.19565385     0.03400
C408        C  0.20366301  0.98263734  0.23532072    -0.10700
H409        H  0.29311146  0.61571367  0.22568585     0.09000
H410        H  0.25245791  0.99177027  0.14026365     0.06500
H411        H  0.17935424  0.95381939  0.25794659     0.06400
C412        C  0.45055683  0.74246874  0.22861896     0.03400
C413        C  0.41604447  0.73935896  0.19827982    -0.12700
C414        C  0.43714567  0.77532974  0.16684466     0.00900
C415        C  0.99132736  0.79409942  0.15595433    -0.11200
C416        C  0.02795666  0.79621200  0.18469297     0.03400
C417        C  0.00684827  0.77505119  0.22301821    -0.10700
H418        H  0.37311367  0.72136331  0.20495409     0.09000
H419        H  0.00482695  0.81134337  0.12686650     0.06500
H420        H  0.03389076  0.78244597  0.24772706     0.06400
C421        C  0.33913409  0.95408406  0.12612818     0.03400
C422        C  0.28255388  0.92468536  0.13300502    -0.12700
C423        C  0.26213609  0.90232236  0.17153580     0.00900
C424        C  0.29864202  0.90134105  0.19888648    -0.11200
C425        C  0.35188864  0.91813932  0.18711171     0.03400
C426        C  0.37330522  0.95335209  0.15546549    -0.10700
H427        H  0.25508443  0.92137200  0.10963842     0.09000
H428        H  0.28539883  0.88329221  0.22774392     0.06500
H429        H  0.41596638  0.96948316  0.14865368     0.06400
C430        C  0.11870776  0.88065014  0.17583462     0.02600
C431        C  0.08792626  0.82357792  0.17676597     0.02600
C432        C  0.11489051  0.79275408  0.17742075     0.02600
C433        C  0.17179909  0.81876328  0.18407676     0.02600
C434        C  0.20264561  0.87574376  0.18148608     0.02600
C435        C  0.17568310  0.90664473  0.18309713     0.02600
O436        O  0.37667863  0.66384349  0.41544839    -0.78200
C437        C  0.39434089  0.82198047  0.40308708     0.82900
O438        O  0.18920405  0.62452042  0.39293011    -0.79300
O439        O  0.31426874  0.77175608  0.28733782    -0.80800
O440        O  0.39304610  0.67618468  0.27493520    -0.80600
O441        O  0.39104372  0.62192616  0.36439483    -0.79200
Zn442      Zn  0.33221873  0.69723401  0.40335406     1.55700
O443        O  0.42611066  0.76253251  0.29038208    -0.80600
Cd444      Cd  0.34440169  0.63745282  0.32472447     1.59700
Cd445      Cd  0.23756285  0.65397822  0.33799209     1.59600
O446        O  0.27934412  0.56599974  0.30484244    -0.80600
O447        O  0.31832632  0.68645421  0.34828697    -1.91100
Cd448      Cd  0.36429208  0.75948387  0.32508436     1.59900
O449        O  0.21870387  0.59247617  0.29435050    -0.80600
O450        O  0.39858971  0.82281380  0.36522828    -0.79200
C451        C  0.20999720  0.63142432  0.42783954     0.83300
C452        C  0.39898640  0.63838889  0.40037804     0.83000
O453        O  0.37162796  0.77735546  0.42177319    -0.78200
C454        C  0.42463237  0.72584558  0.26793764     0.83800
O455        O  0.26124096  0.65777978  0.43141193    -0.78300
C456        C  0.23933259  0.56256683  0.28562837     0.83900
C457        C  0.26320998  0.75148123  0.28365416     0.84200
O458        O  0.22909109  0.71345301  0.30617768    -0.80700
C459        C  0.33612672  0.97124901  0.60930545     0.03400
C460        C  0.36390840  0.96590450  0.57556678    -0.12700
C461        C  0.38791020  0.50910482  0.54806103     0.00900
C462        C  0.37241043  0.54890595  0.55163743    -0.11200
C463        C  0.34674956  0.55368150  0.58620474     0.03400
C464        C  0.33987155  0.02059905  0.61760216    -0.10700
H465        H  0.36501930  0.92909808  0.57062207     0.09000
H466        H  0.37374268  0.57194967  0.52606248     0.06500
H467        H  0.31845608  0.02417509  0.64361483     0.06400
C468        C  0.17841346  0.61001141  0.46669511     0.03400
C469        C  0.21048276  0.62055179  0.50076346    -0.12700
C470        C  0.18858762  0.60355084  0.53851244     0.00900
C471        C  0.13356260  0.58240894  0.54456666    -0.11200
C472        C  0.09822626  0.56402238  0.51212475     0.03400
C473        C  0.12114678  0.57891721  0.47241899    -0.10700
H474        H  0.25385176  0.63779198  0.49808596     0.09000
H475        H  0.11901352  0.58013084  0.57482788     0.06500
H476        H  0.09473748  0.56895850  0.44698688     0.06400
C477        C  0.09239194  0.72116174  0.56740449     0.03400
C478        C  0.11769358  0.75093961  0.53289633    -0.12700
C479        C  0.11874755  0.72677962  0.49699896     0.00900
C480        C  0.08944526  0.67155857  0.49305744    -0.11200
C481        C  0.06084531  0.63997803  0.52575170     0.03400
C482        C  0.06359995  0.66459980  0.56369439    -0.10700
H483        H  0.14227857  0.79415066  0.53437733     0.09000
H484        H  0.08937832  0.65329197  0.46458168     0.06500
H485        H  0.04201922  0.64018541  0.58919667     0.06400
C486        C  0.39549091  0.86942012  0.42249286     0.03400
C487        C  0.34775407  0.86988634  0.41486881    -0.12700
C488        C  0.32406674  0.88381076  0.44542285     0.00900
C489        C  0.35610295  0.91750938  0.47575293    -0.11200
C490        C  0.41099623  0.93139710  0.47932138     0.03400
C491        C  0.42954786  0.90273310  0.45388860    -0.10700
H492        H  0.32126014  0.84400208  0.39148441     0.09000
H493        H  0.33618198  0.92862738  0.49852283     0.06500
H494        H  0.46828320  0.90525573  0.45888453     0.06400
C495        C  0.03982804  0.92105887  0.60760090     0.03400
C496        C  0.99621034  0.86950501  0.60503597    -0.12700
C497        C  0.46424657  0.85513612  0.57148297     0.00900
C498        C  0.46134157  0.89392139  0.54929884    -0.11200
C499        C  0.50223911  0.94778768  0.55091676     0.03400
C500        C  0.04255035  0.96066285  0.58093679    -0.10700
H501        H  0.99677586  0.83774562  0.62208164     0.09000
H502        H  0.43121900  0.87895147  0.52664693     0.06500
H503        H  0.07575513  0.99955263  0.58424468     0.06400
C504        C  0.44221813  0.63957775  0.42469746     0.03400
C505        C  0.47412575  0.69060111  0.44089361    -0.12700
C506        C  0.47712973  0.69442716  0.48199194     0.00900
C507        C  0.46914770  0.65132191  0.50459531    -0.11200
C508        C  0.45740488  0.60362418  0.48572144     0.03400
C509        C  0.43714959  0.59498143  0.44618353    -0.10700
H510        H  0.47949696  0.72541192  0.42447639     0.09000
H511        H  0.97227272  0.65494286  0.53681859     0.06500
H512        H  0.41689551  0.55516021  0.43330471     0.06400
C513        C  0.49841822  0.98724448  0.52243482     0.02600
C514        C  0.44446642  0.97399610  0.51047853     0.02600
C515        C  0.42890838  0.51418201  0.51633229     0.02600
C516        C  0.46903160  0.56612510  0.50768412     0.02600
C517        C  0.02250034  0.58217136  0.51828917     0.02600
C518        C  0.03907198  0.54339429  0.52050731     0.02600
C519        C  0.20942932  0.77078774  0.78876940     0.03400
C520        C  0.20944941  0.80758459  0.81642184    -0.12700
C521        C  0.24272987  0.82192053  0.84950210     0.00900
C522        C  0.25962322  0.78659240  0.86293265    -0.11200
C523        C  0.26008642  0.74816295  0.83680187     0.03400
C524        C  0.23874373  0.74408501  0.79778456    -0.10700
H525        H  0.19465075  0.83428254  0.80731027     0.09000
H526        H  0.27668085  0.79286485  0.89221762     0.06500
H527        H  0.24442362  0.72013179  0.77502702     0.06400
C528        C  0.41226216  0.59521500  0.91248561     0.03400
C529        C  0.38622612  0.62467894  0.90259747    -0.12700
C530        C  0.36894063  0.62360743  0.86266391     0.00900
C531        C  0.37060734  0.58615374  0.83598232    -0.11200
C532        C  0.38505679  0.54898254  0.84957192     0.03400
C533        C  0.41474594  0.56042540  0.88426292    -0.10700
H534        H  0.38011151  0.64845821  0.92526186     0.09000
H535        H  0.35646067  0.58233165  0.80587535     0.06500
H536        H  0.42886026  0.03296820  0.89316433     0.06400
C537        C  0.23252771  0.49507406  0.79354294     0.03400
C538        C  0.25825631  0.55092220  0.80072416    -0.12700
C539        C  0.25333603  0.57048540  0.83896429     0.00900
C540        C  0.21398973  0.53387867  0.86536920    -0.11200
C541        C  0.17967182  0.48144877  0.85276721     0.03400
C542        C  0.19739689  0.96106568  0.82181213    -0.10700
H543        H  0.28220194  0.57854040  0.77733664     0.09000
H544        H  0.20663707  0.54618456  0.89407571     0.06500
H545        H  0.17180941  0.91905038  0.81420591     0.06400
C546        C  0.39931490  0.87462943  0.91108806     0.03400
C547        C  0.43421481  0.91036729  0.88264802    -0.12700
C548        C  0.45081729  0.89077923  0.85078409     0.00900
C549        C  0.41642344  0.83891971  0.83711356    -0.11200
C550        C  0.37666437  0.80139634  0.86280231     0.08800
C551        C  0.37236369  0.81909474  0.90208620    -0.10700
H552        H  0.95976379  0.95212162  0.89099593     0.09000
H553        H  0.42425932  0.82734307  0.80823612     0.06500
H554        H  0.34816010  0.79037815  0.92480731     0.06400
C555        C  0.12332952  0.58505427  0.90944278     0.03400
C556        C  0.08774856  0.58037545  0.87939579    -0.12700
C557        C  0.10775369  0.61341507  0.84635149     0.00900
C558        C  0.16111467  0.63126563  0.83455471    -0.11200
C559        C  0.19865132  0.63365183  0.86238652     0.03400
C560        C  0.17963053  0.61499020  0.90182079    -0.10700
H561        H  0.04505323  0.56336600  0.88669202     0.09000
H562        H  0.17336811  0.64690351  0.80489721     0.06500
H563        H  0.20793923  0.62180485  0.92548445     0.06400
C564        C  0.00989163  0.78631180  0.79217335     0.03400
C565        C  0.45314627  0.75892302  0.79896922    -0.12700
C566        C  0.43208358  0.73887697  0.83791528     0.00900
C567        C  0.46788933  0.73880529  0.86625520    -0.11200
C568        C  0.02131215  0.75513478  0.85551882     0.03400
C569        C  0.04359475  0.78808080  0.82264114    -0.10700
H570        H  0.42612830  0.75478907  0.77501345     0.09000
H571        H  0.45383655  0.72171485  0.89535128     0.06500
H572        H  0.08628539  0.80356768  0.81612208     0.06400
C573        C  0.28795016  0.71693089  0.84817793     0.02600
C574        C  0.34547711  0.74319231  0.85098756     0.02600
C575        C  0.37254208  0.71240518  0.84763791     0.02600
C576        C  0.34202676  0.65550394  0.85105161     0.02600
C577        C  0.28460122  0.62929393  0.84895538     0.02600
C578        C  0.25765556  0.66010713  0.85164241     0.02600
O579        O  0.97417077  0.44744061  0.08619454    -0.78200
C580        C  0.05361890  0.62733254  0.08650023     0.82900
O581        O  0.35050606  0.95689057  0.05417370    -0.79300
O582        O  0.47747594  0.61133483  0.96122815    -0.80800
O583        O  0.07094051  0.51899374  0.95708775    -0.80600
O584        O  0.04103846  0.45217662  0.04924608    -0.79200
Zn585      Zn  0.47885233  0.51698876  0.06995656     1.55700
O586        O  0.09039723  0.60398660  0.96838595    -0.80600
Cd587      Cd  0.01059034  0.47318175  0.99904040     1.59700
Cd588      Cd  0.39965107  0.98618220  0.00193603     1.59600
O589        O  0.95145050  0.90689804  0.96859525    -0.80600
O590        O  0.47816024  0.51852087  0.01520542    -1.91100
Cd591      Cd  0.52371853  0.59568821  0.00131545     1.59900
O592        O  0.38362843  0.92491547  0.96055193    -0.80600
O593        O  0.04484595  0.64362477  0.05355180    -0.79200
C594        C  0.36687639  0.97966082  0.08807231     0.83300
C595        C  0.01592387  0.44213911  0.08268153     0.83000
O596        O  0.54746255  0.58038150  0.08893273    -0.78200
C597        C  0.09735683  0.56905686  0.94906159     0.83800
O598        O  0.41382592  0.02012888  0.09105278    -0.78300
C599        C  0.40831112  0.89911070  0.95114673     0.83900
C600        C  0.42715206  0.58747477  0.95278475     0.84200
O601        O  0.39179902  0.54620878  0.97172354    -0.80700
O602        O  0.12841124  0.80376147  0.60107581    -0.78200
C603        C  0.08578762  0.92335784  0.62990476     0.82900
O604        O  0.28963703  0.91385558  0.66258700    -0.79300
O605        O  0.19095570  0.97075048  0.73169860    -0.80800
O606        O  0.03680487  0.77307526  0.72718433    -0.80600
O607        O  0.08635849  0.73268595  0.64028143    -0.79200
Zn608      Zn  0.16188384  0.87442619  0.62743942     1.55700
O609        O  0.07242410  0.85657380  0.75151613    -0.80600
Cd610      Cd  0.10472261  0.77934403  0.69491491     1.59700
Cd611      Cd  0.22822873  0.87985590  0.70402929     1.59600
O612        O  0.14473657  0.75915881  0.73927205    -0.80600
O613        O  0.15468019  0.85781635  0.68242768    -1.91100
Cd614      Cd  0.12669564  0.90291744  0.70717233     1.59900
O615        O  0.23209818  0.81627346  0.72840601    -0.80600
O616        O  0.08370181  0.92303246  0.66788158    -0.79200
C617        C  0.28703520  0.92763352  0.62719351     0.83300
C618        C  0.10167755  0.75315039  0.60532933     0.83000
O619        O  0.11777533  0.91113072  0.61110702    -0.78200
C620        C  0.03803118  0.80661955  0.75343625     0.83800
O621        O  0.24184315  0.91579763  0.61109311    -0.78300
C622        C  0.19466052  0.77835248  0.74818745     0.83900
C623        C  0.22633476  0.96994441  0.75420106     0.84200
O624        O  0.24282817  0.93604262  0.74921496    -0.80700
C625        C  0.11135318  0.69575212  0.87107541    -0.26000
C626        C  0.08784713  0.65183638  0.84446993    -0.14100
C627        C  0.03988916  0.63997298  0.82476372     0.36500
C628        C  0.01628826  0.67184226  0.83249576    -0.25500
C629        C  0.03993896  0.71592707  0.85889018    -0.14700
C630        C  0.08798597  0.72791547  0.87853905     0.37600
N631        N  0.11411133  0.77224692  0.90578850    -0.89000
H632        H  0.14734804  0.70391528  0.88734407     0.18700
H633        H  0.98062759  0.66401987  0.81591914     0.18700
N634        N  0.01455406  0.59661732  0.79664130    -0.88000
H635        H  0.11460929  0.75670139  0.93378204     0.36100
H636        H  0.09210843  0.79236276  0.90947116     0.41200
H637        H  0.03684110  0.57685358  0.79259232     0.40800
H638        H  0.01446779  0.61310635  0.76896039     0.35700
C639        C  0.09118071  0.92592767  0.88325185    -0.26000
C640        C  0.12227301  0.96177395  0.85364209    -0.14100
C641        C  0.09693623  0.97209964  0.82121531     0.36500
C642        C  0.04052054  0.94684165  0.81975127    -0.25500
C643        C  0.00939507  0.91110653  0.84948209    -0.14700
C644        C  0.03482833  0.90036193  0.88163680     0.37600
N645        N  0.00323513  0.86483971  0.91327562    -0.89000
H646        H  0.11093387  0.91731436  0.90725034     0.18700
H647        H  0.52078301  0.95537169  0.79570137     0.18700
N648        N  0.12861151  0.00650042  0.78906013    -0.88000
H649        H  0.02807280  0.86187737  0.93469052     0.36100
H650        H  0.98027367  0.82676914  0.90103995     0.41200
H651        H  0.15239866  0.04485561  0.80072478     0.40800
H652        H  0.10387797  0.00952097  0.76766570     0.35700
C653        C  0.32767193  0.90124728  0.82907540    -0.26000
C654        C  0.28040023  0.87986876  0.85283628    -0.14100
C655        C  0.26629148  0.91472285  0.87260381     0.36500
C656        C  0.29975308  0.96995160  0.86866340    -0.25500
C657        C  0.34688296  0.99143392  0.84470109    -0.14700
C658        C  0.36129440  0.95646969  0.82534249     0.37600
N659        N  0.41088760  0.47619299  0.80323094    -0.89000
H660        H  0.33808290  0.87460653  0.81286240     0.18700
H661        H  0.28979987  0.99655261  0.88539085     0.18700
N662        N  0.21843585  0.89507536  0.89676817    -0.88000
H663        H  0.44307370  0.49853888  0.82242469     0.36100
H664        H  0.41089002  0.50149526  0.78099505     0.41200
H665        H  0.22011577  0.87035801  0.91876123     0.40800
H666        H  0.18513925  0.87202725  0.87867821     0.35700
C667        C  0.51839660  0.78499169  0.50731879    -0.26000
C668        C  0.47226065  0.73652737  0.50158049    -0.14100
C669        C  0.42149498  0.72755859  0.51529813     0.36500
C670        C  0.41856946  0.76601549  0.53934986    -0.25500
C671        C  0.46581889  0.81370749  0.54730366    -0.14700
C672        C  0.01545805  0.82453278  0.52906740     0.37600
N673        N  0.06274340  0.87603105  0.53188341    -0.89000
H674        H  0.05670130  0.79206752  0.49515011     0.18700
H675        H  0.37998140  0.75917386  0.55113877     0.18700
N676        N  0.37333619  0.68022994  0.50364652    -0.88000
H677        H  0.09409440  0.87064120  0.54264503     0.36100
H678        H  0.07359858  0.89154916  0.50303395     0.41200
H679        H  0.35287363  0.65995102  0.52931701     0.40800
H680        H  0.34894610  0.69211949  0.48874730     0.35700
C681        C  0.21059606  0.75299996  0.48040025    -0.26000
C682        C  0.16561727  0.75820708  0.47144307    -0.14100
C683        C  0.17198131  0.80375182  0.45112386     0.36500
C684        C  0.22434424  0.84569675  0.44291562    -0.25500
C685        C  0.26922077  0.84222299  0.45552819    -0.14700
C686        C  0.26240813  0.79503452  0.47373044     0.37600
N687        N  0.30832803  0.79050961  0.48607640    -0.89000
H688        H  0.20531123  0.71845673  0.49694550     0.18700
H689        H  0.23022661  0.88118692  0.42746874     0.18700
N690        N  0.12538896  0.80765875  0.44026734    -0.88000
H691        H  0.29624442  0.75241077  0.49741504     0.36100
H692        H  0.32674406  0.81748629  0.50958930     0.41200
H693        H  0.10341474  0.77695910  0.41981067     0.40800
H694        H  0.13701644  0.84375539  0.42558217     0.35700
C695        C  0.26301113  0.62377929  0.58587009    -0.26000
C696        C  0.21891996  0.58614372  0.56346721    -0.14100
C697        C  0.21501136  0.53658525  0.55304793     0.36500
C698        C  0.25719369  0.52746511  0.56215863    -0.25500
C699        C  0.30337431  0.56663743  0.58120983    -0.14700
C700        C  0.30537430  0.61380594  0.59560944     0.37600
N701        N  0.35134980  0.65223559  0.61771829    -0.89000
H702        H  0.26632761  0.66223293  0.59287983     0.18700
H703        H  0.25540399  0.49041220  0.55249764     0.18700
N704        N  0.17149085  0.49869271  0.52858005    -0.88000
H705        H  0.34691364  0.68536081  0.62522626     0.36100
H706        H  0.38531320  0.66621122  0.59901826     0.41200
H707        H  0.13634700  0.48335383  0.54583880     0.40800
H708        H  0.17686107  0.46614751  0.52099169     0.35700
C709        C  0.44311595  0.85808654  0.19455519    -0.26000
C710        C  0.41741986  0.81426438  0.16806408    -0.14100
C711        C  0.36754415  0.80250060  0.15154817     0.36500
C712        C  0.34511918  0.83494825  0.16089030    -0.25500
C713        C  0.37089462  0.87881217  0.18717087    -0.14700
C714        C  0.42058745  0.89054004  0.20393093     0.37600
N715        N  0.44896920  0.93524365  0.23021255    -0.89000
H716        H  0.48029016  0.86619602  0.20897397     0.18700
H717        H  0.30799453  0.82695610  0.14642777     0.18700
N718        N  0.33857878  0.75759568  0.12564194    -0.88000
H719        H  0.42316856  0.93161043  0.25398764     0.36100
H720        H  0.45839587  0.97007668  0.21454550     0.41200
H721        H  0.32773270  0.72305924  0.14204051     0.40800
H722        H  0.36432353  0.75981893  0.10223758     0.35700
C723        C  0.36356446  0.55746265  0.21051170    -0.26000
C724        C  0.34039931  0.57466170  0.18115469    -0.14100
C725        C  0.37367342  0.61678246  0.15575388     0.36500
C726        C  0.42978803  0.64188779  0.16059564    -0.25500
C727        C  0.45303095  0.62534348  0.19033310    -0.14700
C728        C  0.41975483  0.58241335  0.21524899     0.37600
N729        N  0.44309068  0.56515044  0.24551301    -0.89000
H730        H  0.33738461  0.52546522  0.23056949     0.18700
H731        H  0.45589446  0.67350717  0.14024925     0.18700
N732        N  0.35035369  0.63304118  0.12484797    -0.88000
H733        H  0.41290601  0.53218487  0.26081742     0.36100
H734        H  0.96754228  0.55217780  0.23128698     0.41200
H735        H  0.32434947  0.14485636  0.13846222     0.40800
H736        H  0.38037334  0.66634571  0.10975556     0.35700
C737        C  0.18394420  0.62420391  0.15118910    -0.26000
C738        C  0.17598181  0.65536152  0.17963926    -0.14100
C739        C  0.13694959  0.63047659  0.21057396     0.36500
C740        C  0.10638156  0.57484784  0.21228066    -0.25500
C741        C  0.11453100  0.54375453  0.18399044    -0.14700
C742        C  0.15324615  0.56849870  0.15290955     0.37600
N743        N  0.16013568  0.53701102  0.12230858    -0.89000
H744        H  0.21458703  0.64304320  0.12811396     0.18700
H745        H  0.07568335  0.55597298  0.23532001     0.18700
N746        N  0.12962137  0.66161980  0.24121207    -0.88000
H747        H  0.20080377  0.54711860  0.12135303     0.36100
H748        H  0.15099459  0.54768988  0.09491448     0.41200
H749        H  0.13838735  0.65051188  0.26854767     0.40800
H750        H  0.08884889  0.65097993  0.24223354     0.35700
C751        C  0.54060659  0.43855569  0.12045938     0.03400
C752        C  0.57020998  0.41126303  0.12694054    -0.12700
C753        C  0.59253773  0.41355864  0.16550912     0.00900
C754        C  0.59276147  0.45065168  0.19316142    -0.11200
C755        C  0.57556416  0.98606053  0.18129799     0.03400
C756        C  0.54046820  0.97266283  0.14983704    -0.10700
H757        H  0.57460964  0.38787151  0.10309505     0.09000
H758        H  0.60924255  0.45484975  0.22243814     0.06500
H759        H  0.52437274  0.99919312  0.14364661     0.06400
C760        C  0.74406727  0.25859140  0.24464774     0.03400
C761        C  0.71745866  0.28816181  0.23573991    -0.12700
C762        C  0.69866839  0.28687856  0.19600671     0.00900
C763        C  0.69881794  0.24888499  0.16931486    -0.11200
C764        C  0.71395016  0.21227981  0.18244450     0.03400
C765        C  0.74648515  0.22487385  0.21554713    -0.10700
H766        H  0.71245903  0.31229030  0.25869627     0.09000
H767        H  0.68305214  0.24434138  0.13966775     0.06500
H768        H  0.76162654  0.19798918  0.22342995     0.06400
C769        C  0.55818677  0.15572941  0.12510418     0.03400
C770        C  0.58513228  0.21208950  0.13056936    -0.12700
C771        C  0.58370904  0.23399379  0.16878626     0.00900
C772        C  0.54692653  0.19917299  0.19737202    -0.11200
C773        C  0.01131818  0.14598326  0.18740342     0.03400
C774        C  0.02488220  0.12324834  0.15588010    -0.10700
H775        H  0.60842530  0.23820385  0.10626586     0.09000
H776        H  0.54336541  0.21320848  0.22654059     0.06500
H777        H  0.99880625  0.08071870  0.15052328     0.06400
C778        C  0.73100405  0.03831648  0.24470189     0.03400
C779        C  0.76663307  0.07387149  0.21641316    -0.12700
C780        C  0.78161527  0.05422339  0.18352202     0.00900
C781        C  0.74661171  0.50341225  0.17012526    -0.11200
C782        C  0.70752119  0.46549026  0.19590731     0.03400
C783        C  0.70404208  0.48290972  0.23560400    -0.10700
H784        H  0.79306120  0.11531902  0.22506314     0.09000
H785        H  0.75293946  0.49261708  0.14053043     0.06500
H786        H  0.67975888  0.45395041  0.25815877     0.06400
C787        C  0.95122226  0.24320433  0.22886930     0.03400
C788        C  0.91679571  0.24012961  0.19847780    -0.12700
C789        C  0.93797369  0.27628856  0.16717443     0.00900
C790        C  0.49212047  0.29498204  0.15628040    -0.11200
C791        C  0.52869415  0.29703119  0.18502325     0.03400
C792        C  0.50753016  0.27594769  0.22337159    -0.10700
H793        H  0.87383613  0.22205300  0.20506862     0.09000
H794        H  0.50564686  0.31220552  0.12718914     0.06500
H795        H  0.53452555  0.28336678  0.24811864     0.06400
C796        C  0.84026650  0.45547346  0.12664744     0.03400
C797        C  0.78367262  0.42587488  0.13340663    -0.12700
C798        C  0.76308165  0.40320658  0.17182333     0.00900
C799        C  0.79959495  0.40229721  0.19924272    -0.11200
C800        C  0.85302662  0.41946943  0.18762677     0.03400
C801        C  0.87443916  0.45486223  0.15605832    -0.10700
H802        H  0.75627381  0.42252872  0.10997490     0.09000
H803        H  0.78622571  0.38390401  0.22798001     0.06500
H804        H  0.91714486  0.47119959  0.14931853     0.06400
C805        C  0.61943459  0.38129155  0.17599208     0.02600
C806        C  0.58862610  0.32424591  0.17699286     0.02600
C807        C  0.61551453  0.29332854  0.17736777     0.02600
C808        C  0.67251980  0.31934593  0.18387093     0.02600
C809        C  0.70343431  0.37639564  0.18153922     0.02600
C810        C  0.67640056  0.40724754  0.18322114     0.02600
O811        O  0.87737171  0.16446074  0.41516950    -0.78200
C812        C  0.89422609  0.32237851  0.40320666     0.82900
O813        O  0.68969642  0.12400733  0.39295116    -0.79300
O814        O  0.81386303  0.27204287  0.28759434    -0.80800
O815        O  0.89386194  0.17675361  0.27515138    -0.80600
O816        O  0.89085797  0.12162773  0.36435126    -0.79200
Zn817      Zn  0.83258063  0.19759620  0.40330393     1.55700
O818        O  0.92586084  0.26308015  0.29028599    -0.80600
Cd819      Cd  0.84461494  0.13762341  0.32461729     1.59700
Cd820      Cd  0.73770695  0.15378987  0.33790826     1.59600
O821        O  0.77978268  0.06626420  0.30421263    -0.80600
O822        O  0.81848600  0.18663348  0.34821574    -1.91100
Cd823      Cd  0.86413052  0.25984845  0.32516876     1.59900
O824        O  0.71885633  0.09244769  0.29405194    -0.80600
O825        O  0.89853109  0.32323059  0.36534855    -0.79200
C826        C  0.71052250  0.13112003  0.42786952     0.83300
C827        C  0.89928147  0.13856562  0.40020568     0.83000
O828        O  0.87157192  0.27772252  0.42185378    -0.78200
C829        C  0.92507179  0.22648330  0.26810527     0.83800
O830        O  0.76174927  0.15780309  0.43147692    -0.78300
C831        C  0.73954284  0.06262542  0.28519164     0.83900
C832        C  0.76277106  0.25143331  0.28389371     0.84200
O833        O  0.72881078  0.21320553  0.30635886    -0.80700
C834        C  0.83585557  0.47140832  0.60961639     0.03400
C835        C  0.86347809  0.46618109  0.57574824    -0.12700
C836        C  0.88827024  0.00869156  0.54773639     0.00900
C837        C  0.87250768  0.04828896  0.55102124    -0.11200
C838        C  0.84706823  0.05336984  0.58557858     0.03400
C839        C  0.83947830  0.52067603  0.61809179    -0.10700
H840        H  0.86448856  0.42935239  0.57063844     0.09000
H841        H  0.87351204  0.07092522  0.52527741     0.06500
H842        H  0.81799075  0.52406212  0.64413309     0.06400
C843        C  0.67893950  0.10966689  0.46670445     0.03400
C844        C  0.71095421  0.12026839  0.50080283    -0.12700
C845        C  0.68898884  0.10344134  0.53856516     0.00900
C846        C  0.63394911  0.08236773  0.54454644    -0.11200
C847        C  0.59867224  0.06386885  0.51206221     0.03400
C848        C  0.62167205  0.07865243  0.47238000    -0.10700
H849        H  0.75431218  0.13739076  0.49813682     0.09000
H850        H  0.61934107  0.08017567  0.57477989     0.06500
H851        H  0.59531898  0.06866079  0.44691208     0.06400
C852        C  0.59210102  0.22072901  0.56704102     0.03400
C853        C  0.61708456  0.25052393  0.53243415    -0.12700
C854        C  0.61814598  0.22637150  0.49649839     0.00900
C855        C  0.58913122  0.17116205  0.49262714    -0.11200
C856        C  0.56089336  0.13959542  0.52538809     0.03400
C857        C  0.56361834  0.16416477  0.56334837    -0.10700
H858        H  0.64147610  0.29375306  0.53386321     0.09000
H859        H  0.58911242  0.15286242  0.46416835     0.06500
H860        H  0.54226373  0.13969046  0.58888243     0.06400
C861        C  0.89525024  0.36977922  0.42263535     0.03400
C862        C  0.84748933  0.37015727  0.41497238    -0.12700
C863        C  0.82356354  0.38370061  0.44558639     0.00900
C864        C  0.85545835  0.41735639  0.47605795    -0.11200
C865        C  0.91047878  0.43161270  0.47955524     0.03400
C866        C  0.92919750  0.40311528  0.45407544    -0.10700
H867        H  0.82115956  0.34439343  0.39146974     0.09000
H868        H  0.83545029  0.42828815  0.49888980     0.06500
H869        H  0.96800336  0.40579597  0.45906466     0.06400
C870        C  0.53998604  0.42071625  0.60704219     0.03400
C871        C  0.49654273  0.36911095  0.60419580    -0.12700
C872        C  0.96424425  0.35509337  0.57084224     0.00900
C873        C  0.96100988  0.39405781  0.54918282    -0.11200
C874        C  0.00193698  0.44789998  0.55088601     0.03400
C875        C  0.54244587  0.46056951  0.58074012    -0.10700
H876        H  0.49733337  0.33719274  0.62086376     0.09000
H877        H  0.93050414  0.37923820  0.52682743     0.06500
H878        H  0.57555266  0.49948669  0.58422281     0.06400
C879        C  0.94246588  0.13950781  0.42447648     0.03400
C880        C  0.97449170  0.19042200  0.44077086    -0.12700
C881        C  0.97714930  0.19406348  0.48188297     0.00900
C882        C  0.96899342  0.15082146  0.50442966    -0.11200
C883        C  0.95750482  0.10324251  0.48541461     0.03400
C884        C  0.93735031  0.09478867  0.44583637    -0.10700
H885        H  0.98009242  0.22533902  0.42438421     0.09000
H886        H  0.47199211  0.15430789  0.53666057     0.06500
H887        H  0.91717606  0.05504074  0.43282993     0.06400
C888        C  0.99795541  0.48751341  0.52264812     0.02600
C889        C  0.94398365  0.47430457  0.51070298     0.02600
C890        C  0.92932761  0.01381055  0.51607141     0.02600
C891        C  0.96931509  0.06571665  0.50724193     0.02600
C892        C  0.52276630  0.08182755  0.51791762     0.02600
C893        C  0.53946540  0.04314985  0.52030973     0.02600
C894        C  0.70938311  0.27049142  0.78846086     0.03400
C895        C  0.70950868  0.30748118  0.81596089    -0.12700
C896        C  0.74272611  0.32189943  0.84907230     0.00900
C897        C  0.75967351  0.28667514  0.86262845    -0.11200
C898        C  0.76025568  0.24820755  0.83661576     0.03400
C899        C  0.73870758  0.24381045  0.79760906    -0.10700
H900        H  0.69474204  0.33415935  0.80672953     0.09000
H901        H  0.77668539  0.29306330  0.89193292     0.06500
H902        H  0.74431363  0.21970519  0.77494510     0.06400
C903        C  0.91246840  0.09513232  0.91237429     0.03400
C904        C  0.88667789  0.12482848  0.90248560    -0.12700
C905        C  0.86964420  0.12404070  0.86251404     0.00900
C906        C  0.87103117  0.08638514  0.83584501    -0.11200
C907        C  0.88530419  0.04905314  0.84942359     0.03400
C908        C  0.91504394  0.06047721  0.88407360    -0.10700
H909        H  0.88050144  0.14851884  0.92519238     0.09000
H910        H  0.85706860  0.08272604  0.80569849     0.06500
H911        H  0.92860922  0.53297399  0.89340825     0.06400
C912        C  0.73346296  0.99553697  0.79338944     0.03400
C913        C  0.75906218  0.05141614  0.80041826    -0.12700
C914        C  0.75427049  0.07106626  0.83866057     0.00900
C915        C  0.71507232  0.03454151  0.86515732    -0.11200
C916        C  0.68075999  0.98209723  0.85265660     0.03400
C917        C  0.69624325  0.46052579  0.82180391    -0.10700
H918        H  0.78281535  0.07896850  0.77693570     0.09000
H919        H  0.70779275  0.04694787  0.89384556     0.06500
H920        H  0.67058487  0.41857666  0.81403881     0.06400
C921        C  0.89879221  0.37520953  0.91117321     0.03400
C922        C  0.93346253  0.41092641  0.88261889    -0.12700
C923        C  0.95002509  0.39131065  0.85072811     0.00900
C924        C  0.91578129  0.33942070  0.83715561    -0.11200
C925        C  0.87658995  0.30184849  0.86305403     0.08800
C926        C  0.87224724  0.31961970  0.90231562    -0.10700
H927        H  0.45894386  0.45271937  0.89088723     0.09000
H928        H  0.92358889  0.32776700  0.80829021     0.06500
H929        H  0.84830368  0.29091798  0.92512047     0.06400
C930        C  0.62443061  0.08549817  0.91009690     0.03400
C931        C  0.58865779  0.08001023  0.87997238    -0.12700
C932        C  0.60830478  0.11292028  0.84686883     0.00900
C933        C  0.66163633  0.13100270  0.83493017    -0.11200
C934        C  0.69943345  0.13387753  0.86269962     0.03400
C935        C  0.68072367  0.11562770  0.90230281    -0.10700
H936        H  0.54591715  0.06261780  0.88725857     0.09000
H937        H  0.67365434  0.14647377  0.80520484     0.06500
H938        H  0.70922268  0.12284216  0.92590799     0.06400
C939        C  0.51087205  0.28669298  0.79272831     0.03400
C940        C  0.95419311  0.26020261  0.79973578    -0.12700
C941        C  0.93299063  0.23982737  0.83858260     0.00900
C942        C  0.96862485  0.23895958  0.86675392    -0.11200
C943        C  0.52189464  0.25460739  0.85590382     0.03400
C944        C  0.54441812  0.28726515  0.82287822    -0.10700
H945        H  0.92726971  0.25660958  0.77586897     0.09000
H946        H  0.95445549  0.22172780  0.89579296     0.06500
H947        H  0.58690326  0.30190275  0.81609686     0.06400
C948        C  0.78837732  0.21722726  0.84814763     0.02600
C949        C  0.84587884  0.24366603  0.85128710     0.02600
C950        C  0.87328972  0.21312561  0.84807369     0.02600
C951        C  0.84285580  0.15611972  0.85097488     0.02600
C952        C  0.78544660  0.12984119  0.84866122     0.02600
C953        C  0.75833254  0.16045558  0.85163188     0.02600
O954        O  0.47346750  0.94651531  0.08588495    -0.78200
C955        C  0.55311263  0.12689220  0.08698771     0.82900
O956        O  0.85129888  0.45805946  0.05467077    -0.79300
O957        O  0.97706166  0.11138984  0.96171485    -0.80800
O958        O  0.57217776  0.01960716  0.95781764    -0.80600
O959        O  0.54079494  0.95181259  0.04920101    -0.79200
Zn960      Zn  0.97813141  0.01621517  0.06995585     1.55700
O961        O  0.59046500  0.10433799  0.96859977    -0.80600
Cd962      Cd  0.51098382  0.97330655  0.99906797     1.59700
Cd963      Cd  0.89990575  0.48720721  0.00217895     1.59600
O964        O  0.45042476  0.40662030  0.96904314    -0.80600
O965        O  0.97801486  0.01818383  0.01518967    -1.91100
Cd966      Cd  0.02348988  0.09554385  0.00158065     1.59900
O967        O  0.88385029  0.42630966  0.96040937    -0.80600
O968        O  0.54468187  0.14325974  0.05394506    -0.79200
C969        C  0.86791951  0.48091080  0.08852612     0.83300
C970        C  0.51532598  0.94137097  0.08247727     0.83000
O971        O  0.04631288  0.07969441  0.08963990    -0.78200
C972        C  0.59829054  0.06964853  0.94969973     0.83800
O973        O  0.91492624  0.52133332  0.09136391    -0.78300
C974        C  0.90785077  0.39975918  0.95122844     0.83900
C975        C  0.92690805  0.08689810  0.95268795     0.84200
O976        O  0.89165461  0.04482033  0.97091358    -0.80700
O977        O  0.62832851  0.30330127  0.60077421    -0.78200
C978        C  0.58593033  0.42303975  0.62943120     0.82900
O979        O  0.78941019  0.41472809  0.66318521    -0.79300
O980        O  0.69154661  0.47104873  0.73119018    -0.80800
O981        O  0.53704771  0.27340010  0.72746194    -0.80600
O982        O  0.58600263  0.23231870  0.64001379    -0.79200
Zn983      Zn  0.66184691  0.37389476  0.62721645     1.55700
O984        O  0.57320982  0.35695056  0.75182674    -0.80600
Cd985      Cd  0.60449411  0.27909807  0.69478551     1.59700
Cd986      Cd  0.72785063  0.37955710  0.70430407     1.59600
O987        O  0.64447557  0.25879325  0.73911692    -0.80600
O988        O  0.65455186  0.35755329  0.68230162    -1.91100
Cd989      Cd  0.62692549  0.40300738  0.70700161     1.59900
O990        O  0.73179330  0.31552562  0.72786371    -0.80600
O991        O  0.58381215  0.42279046  0.66743033    -0.79200
C992        C  0.78692373  0.42767620  0.62750390     0.83300
C993        C  0.60144590  0.25271293  0.60502902     0.83000
O994        O  0.61791970  0.41074914  0.61068435    -0.78200
C995        C  0.53876382  0.30700831  0.75387606     0.83800
O996        O  0.74178918  0.41496790  0.61095022    -0.78300
C997        C  0.69443427  0.27780594  0.74784968     0.83900
C998        C  0.72598494  0.46958591  0.75435509     0.84200
O999        O  0.74183122  0.43511800  0.74985154    -0.80700
C1000       C  0.61212539  0.19546184  0.87140134    -0.26000
C1001       C  0.58815990  0.15115478  0.84518081    -0.14100
C1002       C  0.53958122  0.13869851  0.82620181     0.36500
C1003       C  0.51607065  0.17063123  0.83398255    -0.25500
C1004       C  0.54025920  0.21523285  0.85983844    -0.14700
C1005       C  0.58870429  0.22754752  0.87904702     0.37600
N1006       N  0.61517052  0.27214090  0.90602010    -0.89000
H1007       H  0.64851027  0.20398179  0.88726565     0.18700
H1008       H  0.48011970  0.16253771  0.81771045     0.18700
N1009       N  0.51355099  0.09469988  0.79869893    -0.88000
H1010       H  0.61641796  0.25690531  0.93397440     0.36100
H1011       H  0.59291246  0.29195113  0.91001468     0.41200
H1012       H  0.53581228  0.07493970  0.79446687     0.40800
H1013       H  0.51252308  0.11048195  0.77093015     0.35700
C1014       C  0.58996375  0.42511925  0.88319808    -0.26000
C1015       C  0.62121890  0.46114725  0.85371627    -0.14100
C1016       C  0.59607363  0.47175063  0.82130544     0.36500
C1017       C  0.53973061  0.44690239  0.81985519    -0.25500
C1018       C  0.50847256  0.41127382  0.84955907    -0.14700
C1019       C  0.53363169  0.39995026  0.88159066     0.37600
N1020       N  0.50183469  0.36430284  0.91311204    -0.89000
H1021       H  0.60955941  0.41614252  0.90710426     0.18700
H1022       H  0.02014779  0.45570340  0.79583681     0.18700
N1023       N  0.62790061  0.50605312  0.78915848    -0.88000
H1024       H  0.52649440  0.36091275  0.93441996     0.36100
H1025       H  0.47863273  0.32633289  0.90071409     0.41200
H1026       H  0.65162970  0.54435483  0.80078451     0.40800
H1027       H  0.60322750  0.50905833  0.76762742     0.35700
C1028       C  0.82804501  0.40131162  0.82937907    -0.26000
C1029       C  0.78020995  0.37985976  0.85251468    -0.14100
C1030       C  0.76545301  0.41464385  0.87162116     0.36500
C1031       C  0.79908391  0.46987262  0.86795707    -0.25500
C1032       C  0.84680598  0.49140376  0.84467503    -0.14700
C1033       C  0.86167464  0.45655060  0.82573103     0.37600
N1034       N  0.91020814  0.97595295  0.80250930    -0.89000
H1035       H  0.83879914  0.37472278  0.81347294     0.18700
H1036       H  0.78872757  0.49642787  0.88432624     0.18700
N1037       N  0.71675690  0.39492521  0.89481624    -0.88000
H1038       H  0.94258142  0.99770063  0.82167515     0.36100
H1039       H  0.91030783  0.00169568  0.78060463     0.41200
H1040       H  0.71770870  0.37026480  0.91717451     0.40800
H1041       H  0.68408933  0.37179412  0.87620827     0.35700
C1042       C  0.01829153  0.28496503  0.50662605    -0.26000
C1043       C  0.97225405  0.23623384  0.50135794    -0.14100
C1044       C  0.92141936  0.22744518  0.51476416     0.36500
C1045       C  0.91841770  0.26614199  0.53846067    -0.25500
C1046       C  0.96563070  0.31393081  0.54622232    -0.14700
C1047       C  0.51520689  0.32479570  0.52787766     0.37600
N1048       N  0.56227486  0.37653317  0.53022634    -0.89000
H1049       H  0.55659613  0.29206008  0.49442571     0.18700
H1050       H  0.87982910  0.25933867  0.55021905     0.18700
N1051       N  0.87326997  0.18012622  0.50309026    -0.88000
H1052       H  0.59382024  0.37168739  0.54128804     0.36100
H1053       H  0.57299338  0.39149524  0.50122074     0.41200
H1054       H  0.85246511  0.16016885  0.52875215     0.40800
H1055       H  0.84917179  0.19205417  0.48781215     0.35700
C1056       C  0.71003765  0.25261328  0.48016987    -0.26000
C1057       C  0.66505266  0.25768480  0.47095896    -0.14100
C1058       C  0.67138424  0.30294698  0.45026032     0.36500
C1059       C  0.72376621  0.34492924  0.44211176    -0.25500
C1060       C  0.76864713  0.34187738  0.45535676    -0.14700
C1061       C  0.76183962  0.29476257  0.47369271     0.37600
N1062       N  0.80773624  0.29042387  0.48637860    -0.89000
H1063       H  0.70472857  0.21813945  0.49683438     0.18700
H1064       H  0.72965103  0.38021845  0.42636188     0.18700
N1065       N  0.62476540  0.30659899  0.43903766    -0.88000
H1066       H  0.79566117  0.25235367  0.49777626     0.36100
H1067       H  0.82584252  0.31741930  0.50993074     0.41200
H1068       H  0.60289910  0.27563755  0.41874069     0.40800
H1069       H  0.63638829  0.34249742  0.42406011     0.35700
C1070       C  0.76354272  0.12361404  0.58574873    -0.26000
C1071       C  0.71920282  0.08594686  0.56355993    -0.14100
C1072       C  0.71514214  0.03633919  0.55308687     0.36500
C1073       C  0.75748953  0.02729568  0.56174500    -0.25500
C1074       C  0.80383356  0.06647041  0.58061187    -0.14700
C1075       C  0.80597256  0.11361430  0.59517939     0.37600
N1076       N  0.85214199  0.15198122  0.61714917    -0.89000
H1077       H  0.76698829  0.16211053  0.59279970     0.18700
H1078       H  0.75560134  0.99023242  0.55198724     0.18700
N1079       N  0.67126269  0.99833767  0.52894858    -0.88000
H1080       H  0.84776446  0.18507974  0.62486632     0.36100
H1081       H  0.88594331  0.16600725  0.59827479     0.41200
H1082       H  0.63644251  0.98292165  0.54657808     0.40800
H1083       H  0.67662934  0.96586474  0.52111370     0.35700
C1084       C  0.94417069  0.35910004  0.19511298    -0.26000
C1085       C  0.91838654  0.31532863  0.16858761    -0.14100
C1086       C  0.86855964  0.30370790  0.15209356     0.36500
C1087       C  0.84628489  0.33628572  0.16141940    -0.25500
C1088       C  0.87220942  0.38023354  0.18760804    -0.14700
C1089       C  0.92187681  0.39179882  0.20439370     0.37600
N1090       N  0.95050165  0.43656619  0.23056390    -0.89000
H1091       H  0.98128166  0.36705160  0.20955539     0.18700
H1092       H  0.80913677  0.32831038  0.14700259     0.18700
N1093       N  0.83951801  0.25882392  0.12617647    -0.88000
H1094       H  0.92475227  0.43333213  0.25426593     0.36100
H1095       H  0.96027780  0.47133650  0.21470747     0.41200
H1096       H  0.82882945  0.22422688  0.14246713     0.40800
H1097       H  0.86517735  0.26116782  0.10266844     0.35700
C1098       C  0.86338484  0.05702819  0.21004141    -0.26000
C1099       C  0.84015106  0.07412251  0.18066095    -0.14100
C1100       C  0.87337613  0.11671361  0.15559035     0.36500
C1101       C  0.92948044  0.14226873  0.16072254    -0.25500
C1102       C  0.95277761  0.12586977  0.19052307    -0.14700
C1103       C  0.91954791  0.08257292  0.21517811     0.37600
N1104       N  0.94288773  0.06556447  0.24562236    -0.89000
H1105       H  0.83724015  0.02474716  0.22990784     0.18700
H1106       H  0.95556173  0.17415108  0.14055160     0.18700
N1107       N  0.85002550  0.13304603  0.12474555    -0.88000
H1108       H  0.91273122  0.03256623  0.26091247     0.36100
H1109       H  0.46757256  0.05270687  0.23156338     0.41200
H1110       H  0.82477618  0.64499752  0.13852258     0.40800
H1111       H  0.88001592  0.16647998  0.10975633     0.35700
C1112       C  0.68356957  0.12394900  0.15117122    -0.26000
C1113       C  0.67505120  0.15503053  0.17937326    -0.14100
C1114       C  0.63557884  0.13003926  0.21000833     0.36500
C1115       C  0.60516321  0.07439272  0.21169259    -0.25500
C1116       C  0.61394296  0.04337371  0.18371003    -0.14700
C1117       C  0.65302388  0.06821658  0.15287217     0.37600
N1118       N  0.66042514  0.03680124  0.12247974    -0.89000
H1119       H  0.71460164  0.14286954  0.12836665     0.18700
H1120       H  0.57414130  0.05543425  0.23450388     0.18700
N1121       N  0.62789005  0.16111349  0.24051810    -0.88000
H1122       H  0.70117215  0.04719275  0.12175302     0.36100
H1123       H  0.65143285  0.04732330  0.09496513     0.41200
H1124       H  0.63696059  0.15039773  0.26790005     0.40800
H1125       H  0.58699458  0.14996422  0.24161669     0.35700
C1126       C  0.53991301  0.93781840  0.12025336     0.03400
C1127       C  0.56941324  0.91045304  0.12677588    -0.12700
C1128       C  0.59183032  0.91289844  0.16531402     0.00900
C1129       C  0.59230550  0.95023363  0.19284628    -0.11200
C1130       C  0.57599446  0.48648179  0.18168416     0.03400
C1131       C  0.54092849  0.47313845  0.15019436    -0.10700
H1132       H  0.57372118  0.88695243  0.10297050     0.09000
H1133       H  0.60889928  0.95456673  0.22209090     0.06500
H1134       H  0.52477206  0.49964140  0.14409138     0.06400
C1135       C  0.74461374  0.75892576  0.24444444     0.03400
C1136       C  0.71705882  0.78769736  0.23584881    -0.12700
C1137       C  0.69809130  0.78639032  0.19616549     0.00900
C1138       C  0.69870367  0.74877195  0.16932918    -0.11200
C1139       C  0.71467837  0.71271268  0.18223334     0.03400
C1140       C  0.74773462  0.72587333  0.21507646    -0.10700
H1141       H  0.71166236  0.81140363  0.25895135     0.09000
H1142       H  0.68276071  0.74408912  0.13973024     0.06500
H1143       H  0.76362945  0.69952674  0.22269431     0.06400
C1144       C  0.55826610  0.65574651  0.12472134     0.03400
C1145       C  0.58490176  0.71201905  0.13038989    -0.12700
C1146       C  0.58338633  0.73354604  0.16871593     0.00900
C1147       C  0.54697879  0.69846887  0.19733448    -0.11200
C1148       C  0.01152105  0.64532105  0.18720185     0.03400
C1149       C  0.02509521  0.62292774  0.15542804    -0.10700
H1150       H  0.60810896  0.73837128  0.10616908     0.09000
H1151       H  0.54322892  0.71241286  0.22650456     0.06500
H1152       H  0.99915585  0.58042544  0.14988795     0.06400
C1153       C  0.73112930  0.53852906  0.24509349     0.03400
C1154       C  0.76678517  0.57429909  0.21691343    -0.12700
C1155       C  0.78188954  0.55487998  0.18394688     0.00900
C1156       C  0.74622692  0.00269788  0.16983944    -0.11200
C1157       C  0.70696708  0.96497621  0.19565657     0.03400
C1158       C  0.70366059  0.98263769  0.23532414    -0.10700
H1159       H  0.79310413  0.61571727  0.22568117     0.09000
H1160       H  0.75245619  0.99177388  0.14026689     0.06500
H1161       H  0.67935291  0.95381886  0.25794984     0.06400
C1162       C  0.95055831  0.74247051  0.22862074     0.03400
C1163       C  0.91604487  0.73936342  0.19828335    -0.12700
C1164       C  0.93714533  0.77533390  0.16684796     0.00900
C1165       C  0.49132779  0.79409508  0.15595196    -0.11200
C1166       C  0.52795643  0.79621051  0.18469213     0.03400
C1167       C  0.50684696  0.77505061  0.22301750    -0.10700
H1168       H  0.87311447  0.72136883  0.20495882     0.09000
H1169       H  0.50482811  0.81133798  0.12686391     0.06500
H1170       H  0.53388870  0.78244708  0.24772716     0.06400
C1171       C  0.83913313  0.95408555  0.12612921     0.03400
C1172       C  0.78255273  0.92468832  0.13300598    -0.12700
C1173       C  0.76213475  0.90232601  0.17153698     0.00900
C1174       C  0.79864003  0.90134511  0.19888817    -0.11200
C1175       C  0.85188578  0.91814106  0.18711338     0.03400
C1176       C  0.87330343  0.95335330  0.15546706    -0.10700
H1177       H  0.75508351  0.92137525  0.10963928     0.09000
H1178       H  0.78539683  0.88329867  0.22774634     0.06500
H1179       H  0.91596459  0.96948328  0.14865577     0.06400
C1180       C  0.61870616  0.88065050  0.17583462     0.02600
C1181       C  0.58792606  0.82357803  0.17676598     0.02600
C1182       C  0.61489146  0.79275525  0.17742087     0.02600
C1183       C  0.67179991  0.81876557  0.18407736     0.02600
C1184       C  0.70264471  0.87574628  0.18148728     0.02600
C1185       C  0.67568123  0.90664625  0.18309881     0.02600
O1186       O  0.87668230  0.66384436  0.41544722    -0.78200
C1187       C  0.89434188  0.82198025  0.40308863     0.82900
O1188       O  0.68920698  0.62452508  0.39292747    -0.79300
O1189       O  0.81428075  0.77175690  0.28733137    -0.80800
O1190       O  0.89304175  0.67618373  0.27493294    -0.80600
O1191       O  0.89104330  0.62192535  0.36439274    -0.79200
Zn1192     Zn  0.83222134  0.69723430  0.40335375     1.55700
O1193       O  0.92612396  0.76253054  0.29039019    -0.80600
Cd1194     Cd  0.84439967  0.63745206  0.32472315     1.59700
Cd1195     Cd  0.73756678  0.65398544  0.33798974     1.59600
O1196       O  0.77933918  0.56600113  0.30483992    -0.80600
O1197       O  0.81832903  0.68645628  0.34828650    -1.91100
Cd1198     Cd  0.86429960  0.75948500  0.32508412     1.59900
O1199       O  0.71870449  0.59248436  0.29434691    -0.80600
O1200       O  0.89859175  0.82281401  0.36522981    -0.79200
C1201       C  0.70999937  0.63142354  0.42783686     0.83300
C1202       C  0.89898886  0.63838917  0.40037577     0.83000
O1203       O  0.87162880  0.77735506  0.42177455    -0.78200
C1204       C  0.92463592  0.72584432  0.26793978     0.83800
O1205       O  0.76124309  0.65777733  0.43140998    -0.78300
C1206       C  0.73932947  0.56257167  0.28562525     0.83900
C1207       C  0.76322220  0.75148757  0.28364893     0.84200
O1208       O  0.72910149  0.71346441  0.30617521    -0.80700
C1209       C  0.83612658  0.97124899  0.60930548     0.03400
C1210       C  0.86390672  0.96590399  0.57556645    -0.12700
C1211       C  0.88790918  0.50910657  0.54806271     0.00900
C1212       C  0.87241091  0.54890882  0.55163996    -0.11200
C1213       C  0.84675206  0.55368522  0.58620836     0.03400
C1214       C  0.83987353  0.02059958  0.61760378    -0.10700
H1215       H  0.86501606  0.92909693  0.57062084     0.09000
H1216       H  0.87374199  0.57195206  0.52606503     0.06500
H1217       H  0.81845901  0.02417558  0.64361708     0.06400
C1218       C  0.67841493  0.61000691  0.46669181     0.03400
C1219       C  0.71048378  0.62054181  0.50075975    -0.12700
C1220       C  0.68858827  0.60354498  0.53850922     0.00900
C1221       C  0.63356370  0.58240585  0.54456335    -0.11200
C1222       C  0.59822736  0.56402008  0.51212154     0.03400
C1223       C  0.62114797  0.57891588  0.47241580    -0.10700
H1224       H  0.75385219  0.63777717  0.49808185     0.09000
H1225       H  0.61901496  0.58012929  0.57482446     0.06500
H1226       H  0.59473876  0.56896030  0.44698393     0.06400
C1227       C  0.59240039  0.72115838  0.56740709     0.03400
C1228       C  0.61770220  0.75093696  0.53289941    -0.12700
C1229       C  0.61875326  0.72677776  0.49700112     0.00900
C1230       C  0.58944856  0.67155728  0.49305808    -0.11200
C1231       C  0.56084881  0.63997622  0.52575211     0.03400
C1232       C  0.56360624  0.66459667  0.56369584    -0.10700
H1233       H  0.64228930  0.79414777  0.53438123     0.09000
H1234       H  0.58937955  0.65329152  0.46458147     0.06500
H1235       H  0.54202544  0.64018168  0.58919786     0.06400
C1236       C  0.89549110  0.86941952  0.42249443     0.03400
C1237       C  0.84775350  0.86988429  0.41487110    -0.12700
C1238       C  0.82406771  0.88381099  0.44542480     0.00900
C1239       C  0.85610426  0.91751135  0.47575336    -0.11200
C1240       C  0.91099682  0.93139808  0.47932192     0.03400
C1241       C  0.92954874  0.90273414  0.45388924    -0.10700
H1242       H  0.82125851  0.84399822  0.39148787     0.09000
H1243       H  0.83618343  0.92863015  0.49852281     0.06500
H1244       H  0.96828448  0.90525757  0.45888492     0.06400
C1245       C  0.53983042  0.92105947  0.60759943     0.03400
C1246       C  0.49621047  0.86950687  0.60503645    -0.12700
C1247       C  0.96424688  0.85513420  0.57148213     0.00900
C1248       C  0.96134118  0.89391934  0.54929833    -0.11200
C1249       C  0.00223738  0.94778604  0.55091745     0.03400
C1250       C  0.54255344  0.96066356  0.58093496    -0.10700
H1251       H  0.49677451  0.83774725  0.62208285     0.09000
H1252       H  0.93121948  0.87894948  0.52664577     0.06500
H1253       H  0.57575972  0.99955259  0.58424163     0.06400
C1254       C  0.94222153  0.63957719  0.42469393     0.03400
C1255       C  0.97412961  0.69060029  0.44089064    -0.12700
C1256       C  0.97712897  0.69442566  0.48198928     0.00900
C1257       C  0.96914302  0.65131962  0.50459326    -0.11200
C1258       C  0.95740194  0.60362229  0.48571983     0.03400
C1259       C  0.93715111  0.59498045  0.44618063    -0.10700
H1260       H  0.97950322  0.72541157  0.42447291     0.09000
H1261       H  0.47228057  0.65494568  0.53682047     0.06500
H1262       H  0.91689856  0.55515950  0.43330130     0.06400
C1263       C  0.99841671  0.98724238  0.52243522     0.02600
C1264       C  0.94446543  0.97399508  0.51048001     0.02600
C1265       C  0.92890667  0.51418220  0.51633389     0.02600
C1266       C  0.96902937  0.56612457  0.50768366     0.02600
C1267       C  0.52250253  0.58217042  0.51828866     0.02600
C1268       C  0.53907334  0.54339276  0.52050474     0.02600
C1269       C  0.70944041  0.77079377  0.78877137     0.03400
C1270       C  0.70946098  0.80759029  0.81642442    -0.12700
C1271       C  0.74273881  0.82192289  0.84950611     0.00900
C1272       C  0.75963002  0.78659297  0.86293597    -0.11200
C1273       C  0.76009267  0.74816419  0.83680433     0.03400
C1274       C  0.73875250  0.74408884  0.79778648    -0.10700
H1275       H  0.69466389  0.83428963  0.80731321     0.09000
H1276       H  0.77668649  0.79286322  0.89222127     0.06500
H1277       H  0.74443173  0.72013534  0.77502878     0.06400
C1278       C  0.91226220  0.59521236  0.91248523     0.03400
C1279       C  0.88622368  0.62467404  0.90259843    -0.12700
C1280       C  0.86893988  0.62360445  0.86266489     0.00900
C1281       C  0.87061017  0.58615457  0.83598154    -0.11200
C1282       C  0.88506155  0.54898433  0.84956958     0.03400
C1283       C  0.91474994  0.56042630  0.88426106    -0.10700
H1284       H  0.88010710  0.64845116  0.92526361     0.09000
H1285       H  0.85646479  0.58233451  0.80587430     0.06500
H1286       H  0.92886418  0.03297218  0.89316847     0.06400
C1287       C  0.73253094  0.49507104  0.79354535     0.03400
C1288       C  0.75825774  0.55091923  0.80072637    -0.12700
C1289       C  0.75333530  0.57048260  0.83896584     0.00900
C1290       C  0.71398698  0.53387528  0.86536956    -0.11200
C1291       C  0.67967251  0.48144399  0.85276816     0.03400
C1292       C  0.69740165  0.96106724  0.82181230    -0.10700
H1293       H  0.78220302  0.57853752  0.77733881     0.09000
H1294       H  0.70663083  0.54618085  0.89407496     0.06500
H1295       H  0.67181609  0.91905130  0.81420704     0.06400
C1296       C  0.89931908  0.87462881  0.91109134     0.03400
C1297       C  0.93421464  0.91036633  0.88264936    -0.12700
C1298       C  0.95081632  0.89077823  0.85078507     0.00900
C1299       C  0.91642353  0.83891761  0.83711628    -0.11200
C1300       C  0.87666794  0.80139425  0.86280690     0.08800
C1301       C  0.87236964  0.81909359  0.90209103    -0.10700
H1302       H  0.45976535  0.95212176  0.89099614     0.09000
H1303       H  0.92425743  0.82734071  0.80823829     0.06500
H1304       H  0.84816829  0.79037757  0.92481313     0.06400
C1305       C  0.62333179  0.58505718  0.90944416     0.03400
C1306       C  0.58775187  0.58038110  0.87939730    -0.12700
C1307       C  0.60775837  0.61342166  0.84635364     0.00900
C1308       C  0.66111874  0.63127042  0.83455680    -0.11200
C1309       C  0.69865406  0.63365353  0.86238841     0.03400
C1310       C  0.67963294  0.61499190  0.90182261    -0.10700
H1311       H  0.54505659  0.56337273  0.88669323     0.09000
H1312       H  0.67337282  0.64690888  0.80489951     0.06500
H1313       H  0.70794128  0.62180485  0.92548620     0.06400
C1314       C  0.50989160  0.78631064  0.79216947     0.03400
C1315       C  0.95314633  0.75892179  0.79897313    -0.12700
C1316       C  0.93208415  0.73887375  0.83791883     0.00900
C1317       C  0.96789004  0.73880166  0.86625818    -0.11200
C1318       C  0.52131156  0.75513716  0.85551644     0.03400
C1319       C  0.54359446  0.78808118  0.82263795    -0.10700
H1320       H  0.92612783  0.75478785  0.77501777     0.09000
H1321       H  0.95383742  0.72170943  0.89535387     0.06500
H1322       H  0.58628512  0.80356732  0.81611921     0.06400
C1323       C  0.78795366  0.71693019  0.84818071     0.02600
C1324       C  0.84547986  0.74319027  0.85099227     0.02600
C1325       C  0.87254323  0.71240233  0.84764178     0.02600
C1326       C  0.84202678  0.65550110  0.85105351     0.02600
C1327       C  0.78460136  0.62929163  0.84895711     0.02600
C1328       C  0.75765756  0.66010647  0.85164427     0.02600
O1329       O  0.47417158  0.44744307  0.08619485    -0.78200
C1330       C  0.55362433  0.62733454  0.08649967     0.82900
O1331       O  0.85050879  0.95688975  0.05417511    -0.79300
O1332       O  0.97747539  0.61133093  0.96122717    -0.80800
O1333       O  0.57094041  0.51899516  0.95708777    -0.80600
O1334       O  0.54104103  0.45218212  0.04924719    -0.79200
Zn1335     Zn  0.97884965  0.51698629  0.06995653     1.55700
O1336       O  0.59039875  0.60398835  0.96838708    -0.80600
Cd1337     Cd  0.51059064  0.47318311  0.99904127     1.59700
Cd1338     Cd  0.89965541  0.98618349  0.00193849     1.59600
O1339       O  0.45144593  0.90689792  0.96859175    -0.80600
O1340       O  0.97815950  0.51851894  0.01520539    -1.91100
Cd1341     Cd  0.02371720  0.59568587  0.00131526     1.59900
O1342       O  0.88363543  0.92491855  0.96055343    -0.80600
O1343       O  0.54485066  0.64362723  0.05355179    -0.79200
C1344       C  0.86687679  0.97966146  0.08807353     0.83300
C1345       C  0.51592572  0.44214358  0.08268231     0.83000
O1346       O  0.04745790  0.58037986  0.08893395    -0.78200
C1347       C  0.59735802  0.56905862  0.94906249     0.83800
O1348       O  0.91382577  0.02013028  0.09105452    -0.78300
C1349       C  0.90831671  0.89911207  0.95114932     0.83900
C1350       C  0.92715159  0.58747193  0.95278411     0.84200
O1351       O  0.89179786  0.54620763  0.97172383    -0.80700
O1352       O  0.62841459  0.80375777  0.60107780    -0.78200
C1353       C  0.58578942  0.92335629  0.62990274     0.82900
O1354       O  0.78963780  0.91385770  0.66258695    -0.79300
O1355       O  0.69095218  0.97074801  0.73170039    -0.80800
O1356       O  0.53681084  0.77307066  0.72718382    -0.80600
O1357       O  0.58636986  0.73268230  0.64028421    -0.79200
Zn1358     Zn  0.66188498  0.87442354  0.62743889     1.55700
O1359       O  0.57242195  0.85657093  0.75151118    -0.80600
Cd1360     Cd  0.60473073  0.77934247  0.69491605     1.59700
Cd1361     Cd  0.72823167  0.87985863  0.70402924     1.59600
O1362       O  0.64474662  0.75916093  0.73927377    -0.80600
O1363       O  0.65468302  0.85781545  0.68242739    -1.91100
Cd1364     Cd  0.62669634  0.90291550  0.70717028     1.59900
O1365       O  0.73210690  0.81628115  0.72840869    -0.80600
O1366       O  0.58370432  0.92303193  0.66787948    -0.79200
C1367       C  0.78703551  0.92763390  0.62719315     0.83300
C1368       C  0.60168542  0.75314665  0.60533184     0.83000
O1369       O  0.61777530  0.91112657  0.61110514    -0.78200
C1370       C  0.53803202  0.80661611  0.75343260     0.83800
O1371       O  0.74184349  0.91579627  0.61109200    -0.78300
C1372       C  0.69467080  0.77835822  0.74818965     0.83900
C1373       C  0.72633541  0.96994574  0.75420039     0.84200
O1374       O  0.74283207  0.93604690  0.74921279    -0.80700
C1375       C  0.61135346  0.69575637  0.87107953    -0.26000
C1376       C  0.58785226  0.65184321  0.84447130    -0.14100
C1377       C  0.53989750  0.63998097  0.82476091     0.36500
C1378       C  0.51629309  0.67184716  0.83249299    -0.25500
C1379       C  0.53993884  0.71592975  0.85888980    -0.14700
C1380       C  0.58798364  0.72791791  0.87854216     0.37600
N1381       N  0.61410407  0.77224719  0.90579410    -0.89000
H1382       H  0.64734628  0.70391876  0.88735077     0.18700
H1383       H  0.48063415  0.66402493  0.81591400     0.18700
N1384       N  0.51456946  0.59662981  0.79663389    -0.88000
H1385       H  0.61460010  0.75669991  0.93378706     0.36100
H1386       H  0.59209836  0.79236061  0.90947635     0.41200
H1387       H  0.53686011  0.57686993  0.79258423     0.40800
H1388       H  0.51448648  0.61312347  0.76895415     0.35700
C1389       C  0.59118253  0.92593184  0.88325192    -0.26000
C1390       C  0.62227451  0.96177348  0.85363958    -0.14100
C1391       C  0.59693728  0.97209522  0.82121107     0.36500
C1392       C  0.54052141  0.94683674  0.81974714    -0.25500
C1393       C  0.50939627  0.91110708  0.84948096    -0.14700
C1394       C  0.53482994  0.90036642  0.88163737     0.37600
N1395       N  0.50323704  0.86484739  0.91327781    -0.89000
H1396       H  0.61093599  0.91732198  0.90725206     0.18700
H1397       H  0.02078241  0.95537978  0.79570705     0.18700
N1398       N  0.62861242  0.00649533  0.78905557    -0.88000
H1399       H  0.52807430  0.86188756  0.93469346     0.36100
H1400       H  0.48027509  0.82677465  0.90104373     0.41200
H1401       H  0.65239460  0.04485237  0.80071943     0.40800
H1402       H  0.60387856  0.00951054  0.76765876     0.35700
C1403       C  0.82768121  0.90124995  0.82908220    -0.26000
C1404       C  0.78040949  0.87987052  0.85284297    -0.14100
C1405       C  0.76629955  0.91472367  0.87261062     0.36500
C1406       C  0.79975759  0.96995253  0.86866752    -0.25500
C1407       C  0.84688749  0.99143574  0.84470517    -0.14700
C1408       C  0.86130184  0.95647240  0.82534853     0.37600
N1409       N  0.91087866  0.47619754  0.80321091    -0.89000
H1410       H  0.83809328  0.87460985  0.81286947     0.18700
H1411       H  0.78980268  0.99655303  0.88539403     0.18700
N1412       N  0.71844721  0.89507503  0.89677884    -0.88000
H1413       H  0.94307084  0.49854052  0.82240082     0.36100
H1414       H  0.91087407  0.50150190  0.78097998     0.41200
H1415       H  0.72013287  0.87036111  0.91877196     0.40800
H1416       H  0.68514832  0.87202323  0.87869166     0.35700
C1417       C  0.01839625  0.78498980  0.50731703    -0.26000
C1418       C  0.97225991  0.73652641  0.50157704    -0.14100
C1419       C  0.92149444  0.72755731  0.51529534     0.36500
C1420       C  0.91856898  0.76601421  0.53934724    -0.25500
C1421       C  0.96581882  0.81370534  0.54730261    -0.14700
C1422       C  0.51545764  0.82453576  0.52906705     0.37600
N1423       N  0.56274111  0.87603611  0.53187875    -0.89000
H1424       H  0.55670164  0.79206956  0.49515163     0.18700
H1425       H  0.87998085  0.75917278  0.55113582     0.18700
N1426       N  0.87333592  0.68022757  0.50364499    -0.88000
H1427       H  0.59409538  0.87065043  0.54263910     0.36100
H1428       H  0.57359186  0.89155112  0.50302828     0.41200
H1429       H  0.85287549  0.65994839  0.52931576     0.40800
H1430       H  0.84894380  0.69211576  0.48874668     0.35700
C1431       C  0.71060167  0.75299998  0.48040348    -0.26000
C1432       C  0.66562198  0.75820512  0.47144504    -0.14100
C1433       C  0.67198469  0.80375052  0.45112765     0.36500
C1434       C  0.72434671  0.84569657  0.44292024    -0.25500
C1435       C  0.76922355  0.84222391  0.45553270    -0.14700
C1436       C  0.76241296  0.79503696  0.47373624     0.37600
N1437       N  0.80833392  0.79051607  0.48608568    -0.89000
H1438       H  0.70531765  0.71845669  0.49694834     0.18700
H1439       H  0.73022819  0.88118676  0.42747386     0.18700
N1440       N  0.62539174  0.80765735  0.44027294    -0.88000
H1441       H  0.79625171  0.75241785  0.49742518     0.36100
H1442       H  0.82674609  0.81749332  0.50959884     0.41200
H1443       H  0.60341814  0.77695967  0.41981483     0.40800
H1444       H  0.63701848  0.84375562  0.42559003     0.35700
C1445       C  0.76301294  0.62378162  0.58586768    -0.26000
C1446       C  0.71892020  0.58614198  0.56346810    -0.14100
C1447       C  0.71500977  0.53658103  0.55305532     0.36500
C1448       C  0.75719221  0.52746219  0.56216811    -0.25500
C1449       C  0.80337489  0.56663852  0.58121470    -0.14700
C1450       C  0.80537639  0.61380975  0.59560915     0.37600
N1451       N  0.85135355  0.65224313  0.61771464    -0.89000
H1452       H  0.76633051  0.66223689  0.59287270     0.18700
H1453       H  0.75540188  0.49040777  0.55251074     0.18700
N1454       N  0.67148798  0.49868443  0.52859042    -0.88000
H1455       H  0.84691896  0.68537076  0.62521792     0.36100
H1456       H  0.88531608  0.66621402  0.59901429     0.41200
H1457       H  0.63634486  0.48335073  0.54584929     0.40800
H1458       H  0.67685637  0.46613663  0.52100733     0.35700
C1459       C  0.94311039  0.85808696  0.19456039    -0.26000
C1460       C  0.91741812  0.81426744  0.16806658    -0.14100
C1461       C  0.86754413  0.80250459  0.15154773     0.36500
C1462       C  0.84511817  0.83495175  0.16088886    -0.25500
C1463       C  0.87088970  0.87881246  0.18717274    -0.14700
C1464       C  0.92057920  0.89053783  0.20393701     0.37600
N1465       N  0.94895404  0.93523560  0.23022493    -0.89000
H1466       H  0.98028288  0.86619527  0.20898145     0.18700
H1467       H  0.80799561  0.82696135  0.14642377     0.18700
N1468       N  0.83858092  0.75760055  0.12564036    -0.88000
H1469       H  0.92314786  0.93159438  0.25399883     0.36100
H1470       H  0.95838106  0.97007182  0.21456290     0.41200
H1471       H  0.82773289  0.72306413  0.14203909     0.40800
H1472       H  0.86432790  0.75982387  0.10223759     0.35700
C1473       C  0.86355950  0.55746286  0.21051117    -0.26000
C1474       C  0.84039605  0.57466483  0.18115499    -0.14100
C1475       C  0.87367169  0.61678894  0.15575722     0.36500
C1476       C  0.92978595  0.64189375  0.16060052    -0.25500
C1477       C  0.95302745  0.62534521  0.19033604    -0.14700
C1478       C  0.91974973  0.58241227  0.21524937     0.37600
N1479       N  0.94308384  0.56514443  0.24551128    -0.89000
H1480       H  0.83737847  0.52546331  0.23056705     0.18700
H1481       H  0.95589337  0.67351537  0.14025603     0.18700
N1482       N  0.85035377  0.63305113  0.12485231    -0.88000
H1483       H  0.91289824  0.53217791  0.26081407     0.36100
H1484       H  0.46755025  0.55218366  0.23129061     0.41200
H1485       H  0.82434054  0.14484820  0.13845211     0.40800
H1486       H  0.88037415  0.66635891  0.10976312     0.35700
C1487       C  0.68395320  0.62420715  0.15119137    -0.26000
C1488       C  0.67598862  0.65536682  0.17963833    -0.14100
C1489       C  0.63695648  0.63048371  0.21057341     0.36500
C1490       C  0.60638778  0.57485486  0.21228162    -0.25500
C1491       C  0.61453798  0.54375957  0.18399346    -0.14700
C1492       C  0.65325611  0.56850203  0.15291418     0.37600
N1493       N  0.66014891  0.53701263  0.12231641    -0.89000
H1494       H  0.71459722  0.64304491  0.12811681     0.18700
H1495       H  0.57568822  0.55598154  0.23532028     0.18700
N1496       N  0.62962927  0.66162873  0.24121054    -0.88000
H1497       H  0.70081774  0.54712396  0.12136156     0.36100
H1498       H  0.65100704  0.54768743  0.09492079     0.41200
H1499       H  0.63839613  0.65052224  0.26854648     0.40800
H1500       H  0.58885691  0.65098891  0.24223256     0.35700
loop_ 
_geom_bond_atom_site_label_1 
_geom_bond_atom_site_label_2 
_geom_bond_distance 
_geom_bond_site_symmetry_2 
_ccdc_geom_bond_type 
C1            C2   1.423       .  A
C1          C381   1.395       .  A
C1          C595   1.484       .  S
C2            C3   1.433       .  A
C2            H7   1.082       .  S
C3            C4   1.401       .  A
C3           C55   1.508       .  S
C4          C380   1.388       .  A
C4            H8   1.072       .  S
C5            C6   1.377       .  A
C5          C379   1.388       .  A
C5          C366   1.462   1_565  S
C6          C376   1.394       .  A
C6            H9   1.086       .  S
C10          C11   1.422       .  A
C10          C15   1.390       .  A
C10          C82   1.478       .  S
C11          C12   1.434       .  A
C11          H16   1.083       .  S
C12          C13   1.403       .  A
C12          C58   1.511       .  S
C13          C14   1.393       .  A
C13          H17   1.075       .  S
C14          C15   1.380       .  A
C14         C363   1.465       .  S
C15          H18   1.088       .  S
C19          C20   1.419       .  A
C19         C774   1.397       .  A
C19         C205   1.483       .  S
C20          C21   1.428       .  A
C20          H25   1.083       .  S
C21          C22   1.405       .  A
C21          C57   1.510       .  S
C22         C773   1.394       .  A
C22          H26   1.075       .  S
C23          C24   1.382       .  A
C23         C772   1.394       .  A
C23         C352   1.471       .  S
C24         C769   1.397       .  A
C24          H27   1.086       .  S
C28          C29   1.394       .  A
C28         C408   1.425   1_545  A
C28          C81   1.485       .  S
C29          C30   1.386       .  A
C29          H34   1.087       .  S
C30         C406   1.394       .  A
C30         C349   1.472       .  S
C31          C32   1.403       .  A
C31         C405   1.394       .  A
C31          H35   1.074       .  S
C32          C33   1.434       .  A
C32          C60   1.516       .  S
C33         C403   1.424       .  A
C33          H36   1.083       .  S
C37          C38   1.393       .  A
C37         C792   1.412       .  A
C37          C79   1.464       .  S
C38          C39   1.389       .  A
C38          H43   1.087       .  S
C39         C790   1.402       .  A
C39         C335   1.476       .  S
C40          C41   1.406   1_655  A
C40         C789   1.402       .  A
C40          H44   1.074   1_655  S
C41          C42   1.419       .  A
C41          C56   1.506       .  S
C42         C787   1.412   1_455  A
C42          H45   1.083       .  S
C46          C47   1.418       .  A
C46          C51   1.399       .  A
C46         C219   1.486       .  S
C47          C48   1.429       .  A
C47          H52   1.083       .  S
C48          C49   1.405       .  A
C48          C59   1.510       .  S
C49          C50   1.397       .  A
C49          H53   1.074       .  S
C50          C51   1.384       .  A
C50         C338   1.472       .  S
C51          H54   1.086       .  S
C55          C56   1.428       .  A
C55          C60   1.434       .  A
C56          C57   1.427       .  A
C57          C58   1.431       .  A
C58          C59   1.430       .  A
C59          C60   1.429       .  A
O61          C77   1.276       .  A
O61         Zn67   1.973       .  S
C62         C111   1.488       .  S
C62          O78   1.281       .  A
C62          O75   1.271       .  A
O63          C76   1.286       .  A
O63         Cd70   2.192       .  S
O64          C82   1.278       .  A
O64         Cd73   2.073       .  S
O65          C79   1.279       .  A
O65         Cd69   2.096       .  S
O66          C77   1.271       .  A
O66         Cd69   2.089       .  S
Zn67         O78   2.093       .  S
Zn67         O80   1.989       .  S
Zn67         O72   1.883       .  S
O68          C79   1.271       .  A
O68         Cd73   2.058       .  S
Cd69         O71   2.085       .  S
Cd69         O72   2.034       .  S
Cd70         O74   2.140       .  S
Cd70         O83   2.134       .  S
Cd70         O72   2.041       .  S
O71          C81   1.275       .  A
O72         Cd73   2.005       .  S
Cd73         O75   2.075       .  S
O74          C81   1.284       .  A
C76          C93   1.522       .  S
C76          O80   1.276       .  A
C77         C129   1.470       .  S
C82          O83   1.287       .  A
C84          C85   1.418       .  A
C84          C89   1.392       .  A
C84         C242   1.465       .  S
C85         C461   1.423       .  A
C85          H90   1.083       .  S
C86          C87   1.414       .  A
C86         C460   1.423   1_545  A
C86         C140   1.519       .  S
C87          C88   1.400       .  A
C87          H91   1.076       .  S
C88         C464   1.379       .  A
C88         C324   1.463       .  S
C89         C463   1.379       .  A
C89          H92   1.088       .  S
C93          C94   1.405       .  A
C93          C98   1.431       .  A
C94          C95   1.384       .  A
C94          H99   1.082       .  S
C95          C96   1.384       .  A
C95         C321   1.464       .  S
C96          C97   1.402       .  A
C96         H100   1.079       .  S
C97          C98   1.445       .  A
C97         C143   1.506       .  S
C98         H101   1.082       .  S
C102        C103   1.407       .  A
C102        C107   1.418       .  A
C102        C243   1.508       .  S
C103        C104   1.389       .  A
C103        H108   1.084       .  S
C104        C105   1.386       .  A
C104        C307   1.457       .  S
C105        C106   1.396       .  A
C105        H109   1.083       .  S
C106        C107   1.431       .  A
C106        C142   1.489       .  S
C107        H110   1.083       .  S
C111        C112   1.390       .  A
C111        C116   1.433       .  A
C112        C113   1.377       .  A
C112        H117   1.089       .  S
C113        C114   1.392       .  A
C113        C310   1.462       .  S
C114        C115   1.415       .  A
C114        H118   1.079       .  S
C115        C116   1.442       .  A
C115        C139   1.532       .  S
C116        H119   1.082       .  S
C120        C121   1.389   1_455  A
C120        C125   1.425       .  A
C120        C228   1.487       .  S
C121        C872   1.381       .  A
C121        H126   1.087       .  S
C122        C123   1.380       .  A
C122        C871   1.381       .  A
C122        C296   1.449       .  S
C123        C124   1.406       .  A
C123        H127   1.068       .  S
C124        C875   1.439       .  A
C124        C138   1.533       .  S
C125        C874   1.439       .  A
C125        H128   1.055       .  S
C129        C130   1.396       .  A
C129        C134   1.419       .  A
C130        C131   1.380       .  A
C130        H135   1.087       .  S
C131        C132   1.377       .  A
C131        C293   1.433       .  S
C132        C133   1.387       .  A
C132        H886   1.083       .  S
C133        C134   1.421       .  A
C133        C141   1.478       .  S
C134        H137   1.083       .  S
H136        C882   1.083       .  S
C138        C139   1.449       .  A
C138       C1268   1.449       .  A
C139        C515   1.415       .  A
C140        C141   1.390       .  A
C140        C514   1.415   1_545  A
C141        C892   1.404       .  A
C142        C143   1.408       .  A
C142        C891   1.404   1_455  A
C143       C1263   1.449   1_445  A
C144        C145   1.396       .  A
C144        C149   1.419       .  A
C144        C247   1.478       .  S
C145        C146   1.388       .  A
C145        H150   1.087       .  S
C146        C147   1.398       .  A
C146        C279   1.473       .  S
C147        C148   1.405       .  A
C147        H151   1.073       .  S
C148        C149   1.428       .  A
C148        C198   1.514       .  S
C149        H152   1.083       .  S
C153        C154   1.414       .  A
C153        C158   1.393       .  A
C153        C225   1.471       .  S
C154        C155   1.426       .  A
C154        H159   1.083       .  S
C155        C156   1.409       .  A
C155        C201   1.510       .  S
C156        C157   1.400       .  A
C156        H160   1.075       .  S
C157        C158   1.384       .  A
C157        C657   1.475   1_545  S
C158        H536   1.088       .  S
H161        C533   1.088       .  S
C162        C163   1.416   1_565  A
C162        C542   1.390       .  A
C162        C623   1.463       .  S
C163        C164   1.425       .  A
C163        H168   1.083       .  S
C164        C165   1.404       .  A
C164        C202   1.506       .  S
C165        C166   1.395   1_545  A
C165        H169   1.073       .  S
C166        C542   1.381       .  A
C166        C640   1.466       .  S
C167        C537   1.389       .  A
C167        C541   1.381       .  A
C167        H170   1.088       .  S
C171        C172   1.392       .  A
C171        C176   1.419       .  A
C171        C224   1.474       .  S
C172        C173   1.383       .  A
C172        H927   1.088       .  S
C173        C174   1.394       .  A
C173       C1018   1.467       .  S
C174        C175   1.403       .  A
C174        H178   1.075       .  S
C175        C176   1.430       .  A
C175        C199   1.505       .  S
C176        H179   1.083       .  S
H177        C922   1.088       .  S
C180        C181   1.394       .  A
C180        C185   1.417       .  A
C180        C222   1.473       .  S
C181        C182   1.385       .  A
C181        H186   1.087       .  S
C182        C183   1.393       .  A
C182        C251   1.467       .  S
C183        C184   1.401       .  A
C183        H187   1.075       .  S
C184        C185   1.427       .  A
C184        C203   1.502       .  S
C185        H188   1.083       .  S
C189        C194   1.393       .  A
C189        C940   1.420   1_455  A
C189        C245   1.481       .  S
C190        C191   1.430       .  A
C190        C939   1.420       .  A
C190        H195   1.083       .  S
C191        C192   1.403       .  A
C191        C200   1.510       .  S
C192        C943   1.395       .  A
C192        H196   1.075       .  S
C193        C194   1.387       .  A
C193        C942   1.395   1_455  A
C193        C254   1.466       .  S
C194        H197   1.087       .  S
C198        C199   1.429       .  A
C198        C203   1.425       .  A
C199        C200   1.433       .  A
C200        C201   1.429       .  A
C201        C202   1.425       .  A
C202        C203   1.427       .  A
O204        C220   1.272   1_655  A
O204       Zn960   2.015   1_565  S
C205        O218   1.277       .  A
C205        O971   1.274       .  A
O206        C219   1.277       .  A
O206       Cd213   2.127       .  S
O207        C225   1.280       .  A
O207       Cd216   2.093   1_556  S
O208        C222   1.281       .  A
O208       Cd212   2.097   1_545  S
O209        C220   1.275       .  A
O209       Cd212   2.119   1_554  S
Zn210       O221   2.011       .  S
Zn210       O954   2.015   1_545  S
Zn210       O598   2.004       .  S
Zn210       O215   1.835       .  S
O211        C222   1.281       .  A
O211       Cd966   2.093   1_556  S
Cd212       O589   2.091   1_455  S
Cd212       O965   1.996   1_466  S
Cd213       O217   2.097   1_554  S
Cd213       O601   2.094   1_554  S
Cd213       O590   1.999       .  S
O214        C974   1.281       .  A
O214       Cd587   2.092   1_655  S
O215       Cd216   1.997       .  S
O215       Cd962   1.996   1_544  S
O215       Cd588   2.002   1_545  S
Cd216       O961   2.093   1_554  S
Cd216       O968   2.116       .  S
O217        C224   1.280       .  A
O218       Cd966   2.116       .  S
C219        O223   1.272       .  A
C220        C376   1.482       .  S
O221        C955   1.274       .  A
O223       Zn585   2.003       .  S
C224        O964   1.281       .  A
C225        O226   1.282       .  A
O226       Cd588   2.093   1_546  S
O227        C243   1.274       .  A
O227       Zn233   1.970       .  S
C228        O244   1.280       .  A
C228        O241   1.273       .  A
O229        C242   1.268       .  A
O229       Cd236   2.050       .  S
O230        C248   1.274       .  A
O230       Cd239   2.079       .  S
O231        C245   1.285       .  A
O231       Cd235   2.130       .  S
O232        C243   1.287       .  A
O232       Cd235   2.172       .  S
Zn233       O244   2.077       .  S
Zn233       O246   2.048       .  S
Zn233       O238   1.891       .  S
O234        C245   1.280       .  A
O234       Cd239   2.080       .  S
Cd235       O237   2.133       .  S
Cd235       O238   2.030       .  S
Cd236       O240   2.061       .  S
Cd236       O249   2.089       .  S
Cd236       O238   2.005       .  S
O237        C247   1.283       .  A
O238       Cd239   1.991       .  S
Cd239       O241   2.079       .  S
O240        C247   1.270       .  A
C242        O246   1.281       .  A
C248        C537   1.464       .  S
C248        O249   1.279       .  A
C250        C251   1.411       .  A
C250        C255   1.396       .  A
C250        H257   1.084       .  S
C251        C252   1.404       .  A
C252        C253   1.395       .  A
C252        N259   1.437       .  S
C253        C254   1.410       .  A
C253        H258   1.084   1_455  S
C254        C255   1.406       .  A
C255        N256   1.437       .  S
N256        H260   1.046       .  S
N256        H261   1.044       .  S
N259        H262   1.044       .  S
N259        H263   1.046       .  S
C264        C265   1.388       .  A
C264        C269   1.397       .  A
C264        H271   1.084       .  S
C265        C266   1.422       .  A
C265        C541   1.466       .  S
C266        C267   1.398       .  A
C266        N273   1.437       .  S
C267        C268   1.389       .  A
C267       H1022   1.084       .  S
C268        C269   1.423       .  A
C268        C923   1.467   1_455  S
C269        N270   1.437       .  S
N270        H274   1.045       .  S
N270        H275   1.042   1_455  S
H272       C1017   1.084       .  S
N273        H276   1.041       .  S
N273        H277   1.046       .  S
C278        C279   1.409       .  A
C278        C283   1.397       .  A
C278        H285   1.084       .  S
C279        C280   1.404       .  A
C280        C281   1.397       .  A
C280        N287   1.431       .  S
C281        C282   1.409       .  A
C281        H286   1.084       .  S
C282        C283   1.405       .  A
C282        C532   1.474       .  S
C283        N659   1.431       .  S
N284        C658   1.430       .  S
N284        H288   1.044       .  S
N284        H289   1.045   1_565  S
N287        H290   1.045       .  S
N287        H291   1.045       .  S
C292        C293   1.379       .  A
C292       C1047   1.378       .  A
C292       H1049   1.079       .  S
C293        C294   1.407       .  A
C294        C295   1.393       .  A
C294        N301   1.430       .  S
C295        C296   1.393       .  A
C295        H300   1.084       .  S
C296       C1047   1.417       .  A
C297       C1042   1.378       .  A
C297       C1046   1.417   1_455  A
C297        N298   1.431       .  S
N298        H302   1.045       .  S
N298        H303   1.045       .  S
H299       C1042   1.079       .  S
N301        H304   1.039       .  S
N301        H305   1.045       .  S
C306        C307   1.395       .  A
C306        C311   1.387       .  A
C306        H313   1.084       .  S
C307        C308   1.409       .  A
C308        C309   1.405       .  A
C308        N315   1.435       .  S
C309        C310   1.399       .  A
C309        H314   1.083       .  S
C310        C311   1.414       .  A
C311        N312   1.440       .  S
N312        H316   1.046       .  S
N312        H317   1.045       .  S
N315        H318   1.045       .  S
N315        H319   1.046       .  S
C320        C321   1.406       .  A
C320        C325   1.410       .  A
C320        H327   1.083       .  S
C321        C322   1.411       .  A
C322        C323   1.385       .  A
C322        N329   1.438   1_545  S
C323        C324   1.396       .  A
C323        H328   1.085   1_545  S
C324        C325   1.406       .  A
C325        N326   1.437       .  S
N326        H330   1.046       .  S
N326        H331   1.045       .  S
N329        H332   1.040       .  S
N329        H333   1.046       .  S
C334        C335   1.411       .  A
C334        C339   1.396       .  A
C334        H341   1.083       .  S
C335        C336   1.405       .  A
C336        C337   1.393       .  A
C336        N343   1.429       .  S
C337        C338   1.408       .  A
C337        H342   1.084       .  S
C338        C339   1.406       .  A
C339        N340   1.431       .  S
N340        H344   1.045       .  S
N340        H345   1.044       .  S
N343        H346   1.042       .  S
N343        H347   1.045       .  S
C348        C349   1.411       .  A
C348        C353   1.403       .  A
C348        H355   1.084       .  S
C349        C350   1.398       .  A
C350        C351   1.402       .  A
C350        N357   1.436       .  S
C351        C352   1.411       .  A
C351        H356   1.084       .  S
C352        C353   1.401       .  A
C353        N354   1.437       .  S
N354        H358   1.046       .  S
N354       H1109   1.044       .  S
N357        H361   1.046       .  S
N357        H735   1.043       .  S
H359       N1104   1.044       .  S
H360        N732   1.043       .  S
C362        C363   1.390       .  A
C362        C367   1.396       .  A
C362        H369   1.084       .  S
C363        C364   1.421       .  A
C364        C365   1.394       .  A
C364        N371   1.432       .  S
C365        C366   1.388       .  A
C365        H370   1.084       .  S
C366        C367   1.419       .  A
C367        N368   1.433       .  S
N368        H372   1.044       .  S
N368        H373   1.046       .  S
N371        H374   1.045       .  S
N371        H375   1.043       .  S
C376        C377   1.422       .  A
C377        C378   1.433       .  A
C377        H382   1.082       .  S
C378        C379   1.401       .  A
C378        C430   1.507       .  S
C379        H383   1.072       .  S
C380        C381   1.377       .  A
C380        C741   1.462       .  S
C381        H384   1.086       .  S
C385        C386   1.423       .  A
C385        C390   1.391       .  A
C385        C457   1.478       .  S
C386        C387   1.434       .  A
C386        H391   1.083       .  S
C387        C388   1.403       .  A
C387        C433   1.511       .  S
C388        C389   1.393       .  A
C388        H392   1.075       .  S
C389        C390   1.380       .  A
C389        C738   1.464       .  S
C390        H393   1.088       .  S
C394        C395   1.418       .  A
C394       C1149   1.398       .  A
C394        C580   1.482       .  S
C395        C396   1.427       .  A
C395        H400   1.083       .  S
C396        C397   1.404       .  A
C396        C432   1.508       .  S
C397       C1148   1.394       .  A
C397        H401   1.075       .  S
C398       C1147   1.394       .  A
C398        C399   1.382       .  A
C398        C727   1.471       .  S
C399       C1144   1.398       .  A
C399        H402   1.086       .  S
C403        C404   1.394       .  A
C403        C456   1.484       .  S
C404        C405   1.386       .  A
C404        H409   1.087       .  S
C405        C724   1.471       .  S
C406        C407   1.404   1_545  A
C406        H410   1.074   1_545  S
C407        C408   1.435       .  A
C407        C435   1.517       .  S
C408        H411   1.083       .  S
C412        C413   1.393       .  A
C412       C1167   1.412       .  A
C412        C454   1.464       .  S
C413        C414   1.389       .  A
C413        H418   1.087       .  S
C414       C1165   1.403       .  A
C414        C710   1.476       .  S
C415       C1164   1.403       .  A
C415        C416   1.406   1_655  A
C415        H419   1.074   1_655  S
C416        C417   1.419       .  A
C416        C431   1.506       .  S
C417       C1162   1.412   1_455  A
C417        H420   1.083       .  S
C421        C422   1.418       .  A
C421        C426   1.398       .  A
C421        C594   1.486       .  S
C422        C423   1.430       .  A
C422        H427   1.083       .  S
C423        C424   1.404       .  A
C423        C434   1.508       .  S
C424        C425   1.396       .  A
C424        H428   1.074       .  S
C425        C426   1.384       .  A
C425        C713   1.471       .  S
C426        H429   1.086       .  S
C430        C431   1.428       .  A
C430        C435   1.434       .  A
C431        C432   1.427       .  A
C432        C433   1.429       .  A
C433        C434   1.428       .  A
C434        C435   1.429       .  A
O436        C452   1.276       .  A
O436       Zn442   1.972       .  S
C437        C486   1.488       .  S
C437        O453   1.281       .  A
C437        O450   1.271       .  A
O438        C451   1.286       .  A
O438       Cd445   2.193       .  S
O439        C457   1.278       .  A
O439       Cd448   2.072       .  S
O440        C454   1.279       .  A
O440       Cd444   2.096       .  S
O441        C452   1.271       .  A
O441       Cd444   2.089       .  S
Zn442       O453   2.092       .  S
Zn442       O455   1.990       .  S
Zn442       O447   1.881       .  S
O443        C454   1.271       .  A
O443       Cd448   2.059       .  S
Cd444       O446   2.084       .  S
Cd444       O447   2.032       .  S
Cd445       O449   2.138       .  S
Cd445       O458   2.134       .  S
Cd445       O447   2.042       .  S
O446        C456   1.275       .  A
O447       Cd448   2.004       .  S
Cd448       O450   2.074       .  S
O449        C456   1.284       .  A
C451        C468   1.523       .  S
C451        O455   1.276       .  A
C452        C504   1.470       .  S
C457        O458   1.287       .  A
C459        C460   1.419       .  A
C459        C464   1.392   1_565  A
C459        C617   1.466       .  S
C460        H465   1.083       .  S
C461        C462   1.415       .  A
C461        C515   1.520       .  S
C462        C463   1.400       .  A
C462        H466   1.076       .  S
C463        C699   1.464       .  S
C464        H467   1.088       .  S
C468        C469   1.405       .  A
C468        C473   1.431       .  A
C469        C470   1.384       .  A
C469        H474   1.082       .  S
C470        C471   1.384       .  A
C470        C696   1.464       .  S
C471        C472   1.401       .  A
C471        H475   1.079       .  S
C472        C473   1.445       .  A
C472        C518   1.506       .  S
C473        H476   1.082       .  S
C477        C478   1.406       .  A
C477        C482   1.418       .  A
C477        C618   1.507       .  S
C478        C479   1.388       .  A
C478        H483   1.084       .  S
C479        C480   1.386       .  A
C479        C682   1.457       .  S
C480        C481   1.397       .  A
C480        H484   1.082       .  S
C481        C482   1.431       .  A
C481        C517   1.491       .  S
C482        H485   1.083       .  S
C486        C487   1.390       .  A
C486        C491   1.433       .  A
C487        C488   1.377       .  A
C487        H492   1.089       .  S
C488        C489   1.391       .  A
C488        C685   1.461       .  S
C489        C490   1.414       .  A
C489        H493   1.079       .  S
C490        C491   1.441       .  A
C490        C514   1.531       .  S
C491        H494   1.082       .  S
C495        C496   1.389   1_455  A
C495        C500   1.424       .  A
C495        C603   1.486       .  S
C496       C1247   1.381       .  A
C496        H501   1.087       .  S
C497       C1246   1.381       .  A
C497        C498   1.381       .  A
C497        C671   1.449       .  S
C498        C499   1.406       .  A
C498        H502   1.069       .  S
C499       C1250   1.438       .  A
C499        C513   1.533       .  S
C500       C1249   1.438       .  A
C500        H503   1.055       .  S
C504        C505   1.397       .  A
C504        C509   1.418       .  A
C505        C506   1.380       .  A
C505        H510   1.087       .  S
C506        C507   1.376       .  A
C506        C668   1.433       .  S
C507        C508   1.386       .  A
C507       H1261   1.083       .  S
C508        C509   1.421       .  A
C508        C516   1.477       .  S
C509        H512   1.083       .  S
H511       C1257   1.083       .  S
C513        C514   1.448       .  A
C513        C893   1.449   1_565  A
C515        C516   1.391       .  A
C516       C1267   1.404       .  A
C517       C1266   1.404   1_455  A
C517        C518   1.408       .  A
C518        C888   1.449   1_455  A
C519        C520   1.396       .  A
C519        C524   1.418       .  A
C519        C622   1.477       .  S
C520        C521   1.388       .  A
C520        H525   1.087       .  S
C521        C522   1.398       .  A
C521        C654   1.474       .  S
C522        C523   1.405       .  A
C522        H526   1.073       .  S
C523        C524   1.427       .  A
C523        C573   1.513       .  S
C524        H527   1.083       .  S
C528        C529   1.414       .  A
C528        C533   1.393       .  A
C528        C600   1.471       .  S
C529        C530   1.426       .  A
C529        H534   1.083       .  S
C530        C531   1.408       .  A
C530        C576   1.509       .  S
C531        C532   1.400       .  A
C531        H535   1.075       .  S
C532        C533   1.384       .  A
C537        C538   1.416       .  A
C538        C539   1.425       .  A
C538        H543   1.083       .  S
C539        C540   1.405       .  A
C539        C577   1.507       .  S
C540        C541   1.395       .  A
C540        H544   1.073       .  S
C542        H545   1.088       .  S
C546        C547   1.392       .  A
C546        C551   1.419       .  A
C546        C599   1.473       .  S
C547        C548   1.382       .  A
C547       H1302   1.088       .  S
C548        C549   1.395       .  A
C548       C1393   1.469       .  S
C549        C550   1.405       .  A
C549        H553   1.074       .  S
C550        C551   1.430       .  A
C550        C574   1.507       .  S
C551        H554   1.083       .  S
H552       C1297   1.088       .  S
C555        C556   1.394       .  A
C555        C560   1.416       .  A
C555        C597   1.472       .  S
C556        C557   1.386       .  A
C556        H561   1.087       .  S
C557        C558   1.394       .  A
C557        C626   1.468       .  S
C558        C559   1.402       .  A
C558        H562   1.075       .  S
C559        C560   1.426       .  A
C559        C578   1.502       .  S
C560        H563   1.083       .  S
C564       C1315   1.421   1_455  A
C564        C569   1.392       .  A
C564        C620   1.480       .  S
C565       C1314   1.421       .  A
C565        C566   1.430       .  A
C565        H570   1.083       .  S
C566        C567   1.402       .  A
C566        C575   1.508       .  S
C567       C1318   1.394       .  A
C567        H571   1.075       .  S
C568       C1317   1.394   1_455  A
C568        C569   1.386       .  A
C568        C629   1.466       .  S
C569        H572   1.087       .  S
C573        C574   1.429       .  A
C573        C578   1.426       .  A
C574        C575   1.431       .  A
C575        C576   1.428       .  A
C576        C577   1.425       .  A
C577        C578   1.427       .  A
O579        C595   1.272   1_655  A
O579      Zn1335   2.014       .  S
C580       O1346   1.274       .  A
C580        O593   1.277       .  A
O581        C594   1.277       .  A
O581       Cd588   2.128       .  S
O582        C600   1.280       .  A
O582       Cd591   2.091   1_556  S
O583        C597   1.281       .  A
O583       Cd587   2.098       .  S
O584        C595   1.276       .  A
O584       Cd587   2.124   1_554  S
Zn585      O1329   2.014       .  S
Zn585       O596   2.009       .  S
Zn585       O590   1.835       .  S
O586        C597   1.280       .  A
O586      Cd1341   2.090   1_556  S
Cd587      O1340   1.996   1_456  S
Cd588       O592   2.096   1_554  S
O589       C1349   1.281       .  A
O590      Cd1337   1.996   1_554  S
O590       Cd591   1.995       .  S
Cd591      O1336   2.090   1_554  S
Cd591      O1343   2.116       .  S
O592        C599   1.280       .  A
O593      Cd1341   2.116       .  S
C594        O598   1.271   1_565  A
O596       C1330   1.274       .  A
C599       O1339   1.281       .  A
C600        O601   1.282       .  A
O602        C618   1.274       .  A
O602       Zn608   1.970       .  S
C603        O619   1.280       .  A
C603        O616   1.272       .  A
O604        C617   1.268       .  A
O604       Cd611   2.052       .  S
O605        C623   1.274       .  A
O605       Cd614   2.076       .  S
O606        C620   1.284       .  A
O606       Cd610   2.128       .  S
O607        C618   1.286       .  A
O607       Cd610   2.167       .  S
Zn608       O619   2.076       .  S
Zn608       O621   2.049       .  S
Zn608       O613   1.890       .  S
O609        C620   1.279       .  A
O609       Cd614   2.077       .  S
Cd610       O612   2.132       .  S
Cd610       O613   2.030       .  S
Cd611       O615   2.059       .  S
Cd611       O624   2.089       .  S
Cd611       O613   2.006       .  S
O612        C622   1.283       .  A
O613       Cd614   1.991       .  S
Cd614       O616   2.076       .  S
O615        C622   1.270       .  A
C617        O621   1.281       .  A
C623        O624   1.279       .  A
C625        C626   1.411       .  A
C625        C630   1.395       .  A
C625        H632   1.084       .  S
C626        C627   1.405       .  A
C627        C628   1.395       .  A
C627        N634   1.437       .  S
C628        C629   1.410       .  A
C628        H633   1.084   1_455  S
C629        C630   1.405       .  A
C630        N631   1.437       .  S
N631        H635   1.046       .  S
N631        H636   1.044       .  S
N634        H637   1.044       .  S
N634        H638   1.046       .  S
C639        C640   1.388       .  A
C639        C644   1.397       .  A
C639        H646   1.084       .  S
C640        C641   1.422       .  A
C641        C642   1.399       .  A
C641        N648   1.438   1_565  S
C642        C643   1.390       .  A
C642       H1397   1.084       .  S
C643        C644   1.423       .  A
C643       C1298   1.469   1_455  S
C644        N645   1.437       .  S
N645        H649   1.046       .  S
N645        H650   1.041   1_455  S
H647       C1392   1.084       .  S
N648        H651   1.043       .  S
N648        H652   1.044       .  S
C653        C654   1.409       .  A
C653        C658   1.397       .  A
C653        H660   1.084       .  S
C654        C655   1.404       .  A
C655        C656   1.397       .  A
C655        N662   1.431       .  S
C656        C657   1.410       .  A
C656        H661   1.084       .  S
C657        C658   1.406       .  A
N659        H663   1.045       .  S
N659        H664   1.045       .  S
N662        H665   1.045       .  S
N662        H666   1.045       .  S
C667        C668   1.378       .  A
C667       C1422   1.377       .  A
C667       H1424   1.079       .  S
C668        C669   1.406       .  A
C669        C670   1.393       .  A
C669        N676   1.430       .  S
C670        C671   1.394       .  A
C670        H675   1.084       .  S
C671       C1422   1.417       .  A
C672       C1417   1.377       .  A
C672       C1421   1.417   1_455  A
C672        N673   1.431       .  S
N673        H677   1.046       .  S
N673        H678   1.045       .  S
H674       C1417   1.079       .  S
N676        H679   1.039       .  S
N676        H680   1.045       .  S
C681        C682   1.395       .  A
C681        C686   1.387       .  A
C681        H688   1.084       .  S
C682        C683   1.409       .  A
C683        C684   1.405       .  A
C683        N690   1.435       .  S
C684        C685   1.398       .  A
C684        H689   1.083       .  S
C685        C686   1.414       .  A
C686        N687   1.440       .  S
N687        H691   1.046       .  S
N687        H692   1.045       .  S
N690        H693   1.045       .  S
N690        H694   1.046       .  S
C695        C696   1.406       .  A
C695        C700   1.410       .  A
C695        H702   1.083       .  S
C696        C697   1.411       .  A
C697        C698   1.385       .  A
C697        N704   1.439       .  S
C698        C699   1.396       .  A
C698        H703   1.085       .  S
C699        C700   1.406       .  A
C700        N701   1.437       .  S
N701        H705   1.046       .  S
N701        H706   1.045       .  S
N704        H707   1.040       .  S
N704        H708   1.046       .  S
C709        C710   1.411       .  A
C709        C714   1.396       .  A
C709        H716   1.083       .  S
C710        C711   1.406       .  A
C711        C712   1.393       .  A
C711        N718   1.429       .  S
C712        C713   1.408       .  A
C712        H717   1.084       .  S
C713        C714   1.405       .  A
C714        N715   1.431       .  S
N715        H719   1.045       .  S
N715        H720   1.044       .  S
N718        H721   1.042       .  S
N718        H722   1.045       .  S
C723        C724   1.411       .  A
C723        C728   1.403       .  A
C723        H730   1.084       .  S
C724        C725   1.398       .  A
C725        C726   1.401       .  A
C725        N732   1.436       .  S
C726        C727   1.411       .  A
C726        H731   1.084       .  S
C727        C728   1.401       .  A
C728        N729   1.437       .  S
N729        H733   1.046       .  S
N729       H1484   1.044       .  S
N732        H736   1.046       .  S
H734       N1479   1.044       .  S
C737        C738   1.390       .  A
C737        C742   1.396       .  A
C737        H744   1.084       .  S
C738        C739   1.421       .  A
C739        C740   1.394       .  A
C739        N746   1.432       .  S
C740        C741   1.387       .  A
C740        H745   1.084       .  S
C741        C742   1.419       .  A
C742        N743   1.432       .  S
N743        H747   1.044       .  S
N743        H748   1.046       .  S
N746        H749   1.045       .  S
N746        H750   1.043       .  S
C751        C752   1.423       .  A
C751       C1131   1.395       .  A
C751       C1345   1.484       .  S
C752        C753   1.433       .  A
C752        H757   1.082       .  S
C753        C754   1.401       .  A
C753        C805   1.508       .  S
C754       C1130   1.388       .  A
C754        H758   1.072       .  S
C755       C1129   1.388       .  A
C755        C756   1.377       .  A
C755       C1116   1.462   1_565  S
C756       C1126   1.394       .  A
C756        H759   1.086       .  S
C760        C761   1.422       .  A
C760        C765   1.390       .  A
C760        C832   1.478       .  S
C761        C762   1.434       .  A
C761        H766   1.083       .  S
C762        C763   1.403       .  A
C762        C808   1.511       .  S
C763        C764   1.393       .  A
C763        H767   1.075       .  S
C764        C765   1.380       .  A
C764       C1113   1.465       .  S
C765        H768   1.088       .  S
C769        C770   1.419       .  A
C769        C955   1.483       .  S
C770        C771   1.428       .  A
C770        H775   1.083       .  S
C771        C772   1.405       .  A
C771        C807   1.510       .  S
C772        H776   1.075       .  S
C773        C774   1.382       .  A
C773       C1102   1.471   1_455  S
C774        H777   1.086   1_455  S
C778        C779   1.394       .  A
C778       C1158   1.425   1_545  A
C778        C831   1.485       .  S
C779        C780   1.386       .  A
C779        H784   1.087       .  S
C780       C1156   1.394       .  A
C780       C1099   1.472       .  S
C781       C1155   1.394       .  A
C781        C782   1.403       .  A
C781        H785   1.074       .  S
C782        C783   1.434       .  A
C782        C810   1.516       .  S
C783       C1153   1.424       .  A
C783        H786   1.083       .  S
C787        C788   1.393       .  A
C787        C829   1.464       .  S
C788        C789   1.389       .  A
C788        H793   1.087       .  S
C789       C1085   1.476       .  S
C790        C791   1.406       .  A
C790        H794   1.074       .  S
C791        C792   1.419       .  A
C791        C806   1.506       .  S
C792        H795   1.083       .  S
C796        C797   1.418       .  A
C796        C801   1.399       .  A
C796        C969   1.486       .  S
C797        C798   1.429       .  A
C797        H802   1.083       .  S
C798        C799   1.405       .  A
C798        C809   1.510       .  S
C799        C800   1.397       .  A
C799        H803   1.074       .  S
C800        C801   1.384       .  A
C800       C1088   1.472       .  S
C801        H804   1.086       .  S
C805        C806   1.428       .  A
C805        C810   1.434       .  A
C806        C807   1.427       .  A
C807        C808   1.431       .  A
C808        C809   1.430       .  A
C809        C810   1.429       .  A
O811        C827   1.276       .  A
O811       Zn817   1.973       .  S
C812        C861   1.488       .  S
C812        O828   1.281       .  A
C812        O825   1.271       .  A
O813        C826   1.286       .  A
O813       Cd820   2.192       .  S
O814        C832   1.278       .  A
O814       Cd823   2.073       .  S
O815        C829   1.279       .  A
O815       Cd819   2.096       .  S
O816        C827   1.271       .  A
O816       Cd819   2.089       .  S
Zn817       O828   2.093       .  S
Zn817       O830   1.989       .  S
Zn817       O822   1.883       .  S
O818        C829   1.271       .  A
O818       Cd823   2.058       .  S
Cd819       O821   2.085       .  S
Cd819       O822   2.034       .  S
Cd820       O824   2.140       .  S
Cd820       O833   2.134       .  S
Cd820       O822   2.041       .  S
O821        C831   1.275       .  A
O822       Cd823   2.005       .  S
Cd823       O825   2.075       .  S
O824        C831   1.284       .  A
C826        C843   1.522       .  S
C826        O830   1.276       .  A
C827        C879   1.470       .  S
C832        O833   1.287       .  A
C834        C835   1.418       .  A
C834        C839   1.392       .  A
C834        C992   1.465       .  S
C835       C1211   1.423       .  A
C835        H840   1.083       .  S
C836       C1210   1.423   1_545  A
C836        C837   1.414       .  A
C836        C890   1.519       .  S
C837        C838   1.400       .  A
C837        H841   1.076       .  S
C838       C1214   1.379       .  A
C838       C1074   1.463       .  S
C839       C1213   1.379       .  A
C839        H842   1.088       .  S
C843        C844   1.405       .  A
C843        C848   1.431       .  A
C844        C845   1.384       .  A
C844        H849   1.082       .  S
C845        C846   1.384       .  A
C845       C1071   1.464       .  S
C846        C847   1.402       .  A
C846        H850   1.079       .  S
C847        C848   1.445       .  A
C847        C893   1.506       .  S
C848        H851   1.082       .  S
C852        C853   1.407       .  A
C852        C857   1.418       .  A
C852        C993   1.508       .  S
C853        C854   1.389       .  A
C853        H858   1.084       .  S
C854        C855   1.386       .  A
C854       C1057   1.457       .  S
C855        C856   1.396       .  A
C855        H859   1.083       .  S
C856        C857   1.431       .  A
C856        C892   1.489       .  S
C857        H860   1.083       .  S
C861        C862   1.390       .  A
C861        C866   1.433       .  A
C862        C863   1.377       .  A
C862        H867   1.089       .  S
C863        C864   1.392       .  A
C863       C1060   1.462       .  S
C864        C865   1.415       .  A
C864        H868   1.079       .  S
C865        C866   1.442       .  A
C865        C889   1.532       .  S
C866        H869   1.082       .  S
C870        C871   1.389       .  A
C870        C875   1.425       .  A
C870        C978   1.487       .  S
C871        H876   1.087       .  S
C872        C873   1.380       .  A
C872       C1046   1.449       .  S
C873        C874   1.406   1_655  A
C873        H877   1.068       .  S
C874        C888   1.533   1_455  S
C875        H878   1.055       .  S
C879        C880   1.396       .  A
C879        C884   1.419       .  A
C880        C881   1.380       .  A
C880        H885   1.087       .  S
C881        C882   1.377       .  A
C881       C1043   1.433       .  S
C882        C883   1.387       .  A
C883        C884   1.421       .  A
C883        C891   1.478       .  S
C884        H887   1.083       .  S
C888        C889   1.449       .  A
C889       C1265   1.415       .  A
C890       C1264   1.415   1_545  A
C890        C891   1.390       .  A
C892        C893   1.408       .  A
C894        C895   1.396       .  A
C894        C899   1.419       .  A
C894        C997   1.478       .  S
C895        C896   1.388       .  A
C895        H900   1.087       .  S
C896        C897   1.398       .  A
C896       C1029   1.473       .  S
C897        C898   1.405       .  A
C897        H901   1.073       .  S
C898        C899   1.428       .  A
C898        C948   1.514       .  S
C899        H902   1.083       .  S
C903        C904   1.414       .  A
C903        C908   1.393       .  A
C903        C975   1.471       .  S
C904        C905   1.426       .  A
C904        H909   1.083       .  S
C905        C906   1.409       .  A
C905        C951   1.510       .  S
C906        C907   1.400       .  A
C906        H910   1.075       .  S
C907        C908   1.384       .  A
C907       C1407   1.475   1_545  S
C908       H1286   1.088       .  S
H911       C1283   1.088       .  S
C912        C913   1.416   1_565  A
C912       C1292   1.390       .  A
C912       C1373   1.463       .  S
C913        C914   1.425       .  A
C913        H918   1.083       .  S
C914        C915   1.404       .  A
C914        C952   1.506       .  S
C915        C916   1.395   1_545  A
C915        H919   1.073       .  S
C916       C1292   1.381       .  A
C916       C1390   1.466       .  S
C917       C1287   1.389       .  A
C917       C1291   1.381       .  A
C917        H920   1.088       .  S
C921        C922   1.392       .  A
C921        C926   1.419       .  A
C921        C974   1.474       .  S
C922        C923   1.383       .  A
C923        C924   1.394       .  A
C924        C925   1.403       .  A
C924        H928   1.075       .  S
C925        C926   1.430       .  A
C925        C949   1.505       .  S
C926        H929   1.083       .  S
C930        C931   1.394       .  A
C930        C935   1.417       .  A
C930        C972   1.473       .  S
C931        C932   1.385       .  A
C931        H936   1.087       .  S
C932        C933   1.393       .  A
C932       C1001   1.467       .  S
C933        C934   1.401       .  A
C933        H937   1.075       .  S
C934        C935   1.427       .  A
C934        C953   1.502       .  S
C935        H938   1.083       .  S
C939        C944   1.393       .  A
C939        C995   1.481       .  S
C940        C941   1.430       .  A
C940        H945   1.083       .  S
C941        C942   1.403       .  A
C941        C950   1.510       .  S
C942        H946   1.075       .  S
C943        C944   1.387       .  A
C943       C1004   1.466       .  S
C944        H947   1.087       .  S
C948        C949   1.429       .  A
C948        C953   1.425       .  A
C949        C950   1.433       .  A
C950        C951   1.429       .  A
C951        C952   1.425       .  A
C952        C953   1.427       .  A
O954        C970   1.272       .  A
C955        O968   1.277       .  A
O956        C969   1.277       .  A
O956       Cd963   2.127       .  S
O957        C975   1.280       .  A
O957       Cd966   2.093   1_656  S
O958        C972   1.281       .  A
O958       Cd962   2.097   1_545  S
O959        C970   1.275       .  A
O959       Cd962   2.119   1_554  S
Zn960       O971   2.011   1_655  S
Zn960      O1348   2.004       .  S
Zn960       O965   1.835       .  S
O961        C972   1.281       .  A
Cd962      O1339   2.091       .  S
Cd963       O967   2.097   1_554  S
Cd963      O1351   2.094   1_554  S
Cd963      O1340   1.999       .  S
O964      Cd1337   2.092       .  S
O965      Cd1338   2.002   1_545  S
O965       Cd966   1.997   1_655  S
O967        C974   1.280       .  A
C969        O973   1.272       .  A
C970       C1126   1.482       .  S
O973      Zn1335   2.003       .  S
C975        O976   1.282       .  A
O976      Cd1338   2.093   1_546  S
O977        C993   1.274       .  A
O977       Zn983   1.970       .  S
C978        O994   1.280       .  A
C978        O991   1.273       .  A
O979        C992   1.268       .  A
O979       Cd986   2.050       .  S
O980        C998   1.274       .  A
O980       Cd989   2.079       .  S
O981        C995   1.285       .  A
O981       Cd985   2.130       .  S
O982        C993   1.287       .  A
O982       Cd985   2.172       .  S
Zn983       O994   2.077       .  S
Zn983       O996   2.048       .  S
Zn983       O988   1.891       .  S
O984        C995   1.280       .  A
O984       Cd989   2.080       .  S
Cd985       O987   2.133       .  S
Cd985       O988   2.030       .  S
Cd986       O990   2.060       .  S
Cd986       O999   2.089       .  S
Cd986       O988   2.005       .  S
O987        C997   1.283       .  A
O988       Cd989   1.991       .  S
Cd989       O991   2.079       .  S
O990        C997   1.270       .  A
C992        O996   1.281       .  A
C998       C1287   1.464       .  S
C998        O999   1.279       .  A
C1000      C1001   1.411       .  A
C1000      C1005   1.396       .  A
C1000      H1007   1.084       .  S
C1001      C1002   1.404       .  A
C1002      C1003   1.395       .  A
C1002      N1009   1.437       .  S
C1003      C1004   1.410       .  A
C1003      H1008   1.084       .  S
C1004      C1005   1.406       .  A
C1005      N1006   1.437       .  S
N1006      H1010   1.046       .  S
N1006      H1011   1.044       .  S
N1009      H1012   1.044       .  S
N1009      H1013   1.046       .  S
C1014      C1015   1.388       .  A
C1014      C1019   1.397       .  A
C1014      H1021   1.084       .  S
C1015      C1016   1.422       .  A
C1015      C1291   1.466       .  S
C1016      C1017   1.398       .  A
C1016      N1023   1.437       .  S
C1017      C1018   1.389       .  A
C1018      C1019   1.423       .  A
C1019      N1020   1.437       .  S
N1020      H1024   1.045       .  S
N1020      H1025   1.042       .  S
N1023      H1026   1.041       .  S
N1023      H1027   1.046       .  S
C1028      C1029   1.409       .  A
C1028      C1033   1.397       .  A
C1028      H1035   1.084       .  S
C1029      C1030   1.404       .  A
C1030      C1031   1.397       .  A
C1030      N1037   1.431       .  S
C1031      C1032   1.409       .  A
C1031      H1036   1.084       .  S
C1032      C1033   1.405       .  A
C1032      C1282   1.474       .  S
C1033      N1409   1.431       .  S
N1034      C1408   1.430       .  S
N1034      H1038   1.044       .  S
N1034      H1039   1.045   1_565  S
N1037      H1040   1.045       .  S
N1037      H1041   1.045       .  S
C1042      C1043   1.379   1_455  A
C1043      C1044   1.407       .  A
C1044      C1045   1.393       .  A
C1044      N1051   1.430       .  S
C1045      C1046   1.393       .  A
C1045      H1050   1.084       .  S
C1047      N1048   1.431       .  S
N1048      H1052   1.045       .  S
N1048      H1053   1.045       .  S
N1051      H1054   1.039       .  S
N1051      H1055   1.045       .  S
C1056      C1057   1.395       .  A
C1056      C1061   1.387       .  A
C1056      H1063   1.084       .  S
C1057      C1058   1.409       .  A
C1058      C1059   1.405       .  A
C1058      N1065   1.435       .  S
C1059      C1060   1.399       .  A
C1059      H1064   1.083       .  S
C1060      C1061   1.414       .  A
C1061      N1062   1.440       .  S
N1062      H1066   1.046       .  S
N1062      H1067   1.045       .  S
N1065      H1068   1.045       .  S
N1065      H1069   1.046       .  S
C1070      C1071   1.406       .  A
C1070      C1075   1.410       .  A
C1070      H1077   1.083       .  S
C1071      C1072   1.411       .  A
C1072      C1073   1.385       .  A
C1072      N1079   1.438   1_545  S
C1073      C1074   1.396       .  A
C1073      H1078   1.085   1_545  S
C1074      C1075   1.406       .  A
C1075      N1076   1.437       .  S
N1076      H1080   1.046       .  S
N1076      H1081   1.045       .  S
N1079      H1082   1.040       .  S
N1079      H1083   1.046       .  S
C1084      C1085   1.411       .  A
C1084      C1089   1.396       .  A
C1084      H1091   1.083       .  S
C1085      C1086   1.405       .  A
C1086      C1087   1.393       .  A
C1086      N1093   1.429       .  S
C1087      C1088   1.408       .  A
C1087      H1092   1.084       .  S
C1088      C1089   1.406       .  A
C1089      N1090   1.431       .  S
N1090      H1094   1.045       .  S
N1090      H1095   1.044       .  S
N1093      H1096   1.042       .  S
N1093      H1097   1.045       .  S
C1098      C1099   1.411       .  A
C1098      C1103   1.403       .  A
C1098      H1105   1.084       .  S
C1099      C1100   1.398       .  A
C1100      C1101   1.402       .  A
C1100      N1107   1.436       .  S
C1101      C1102   1.411       .  A
C1101      H1106   1.084       .  S
C1102      C1103   1.401       .  A
C1103      N1104   1.437       .  S
N1104      H1108   1.046       .  S
N1107      H1485   1.043       .  S
N1107      H1111   1.046       .  S
H1110      N1482   1.043       .  S
C1112      C1113   1.390       .  A
C1112      C1117   1.396       .  A
C1112      H1119   1.084       .  S
C1113      C1114   1.421       .  A
C1114      C1115   1.394       .  A
C1114      N1121   1.432       .  S
C1115      C1116   1.388       .  A
C1115      H1120   1.084       .  S
C1116      C1117   1.419       .  A
C1117      N1118   1.433       .  S
N1118      H1122   1.044       .  S
N1118      H1123   1.046       .  S
N1121      H1124   1.045       .  S
N1121      H1125   1.043       .  S
C1126      C1127   1.422       .  A
C1127      C1128   1.433       .  A
C1127      H1132   1.082       .  S
C1128      C1129   1.401       .  A
C1128      C1180   1.507       .  S
C1129      H1133   1.072       .  S
C1130      C1131   1.377       .  A
C1130      C1491   1.462       .  S
C1131      H1134   1.086       .  S
C1135      C1136   1.423       .  A
C1135      C1140   1.391       .  A
C1135      C1207   1.478       .  S
C1136      C1137   1.434       .  A
C1136      H1141   1.083       .  S
C1137      C1138   1.403       .  A
C1137      C1183   1.511       .  S
C1138      C1139   1.393       .  A
C1138      H1142   1.075       .  S
C1139      C1140   1.380       .  A
C1139      C1488   1.464       .  S
C1140      H1143   1.088       .  S
C1144      C1145   1.418       .  A
C1144      C1330   1.482       .  S
C1145      C1146   1.427       .  A
C1145      H1150   1.083       .  S
C1146      C1147   1.404       .  A
C1146      C1182   1.508       .  S
C1147      H1151   1.075       .  S
C1148      C1149   1.382       .  A
C1148      C1477   1.471   1_455  S
C1149      H1152   1.086   1_455  S
C1153      C1154   1.394       .  A
C1153      C1206   1.484       .  S
C1154      C1155   1.386       .  A
C1154      H1159   1.087       .  S
C1155      C1474   1.471       .  S
C1156      C1157   1.404   1_545  A
C1156      H1160   1.074   1_545  S
C1157      C1158   1.435       .  A
C1157      C1185   1.517       .  S
C1158      H1161   1.083       .  S
C1162      C1163   1.393       .  A
C1162      C1204   1.464       .  S
C1163      C1164   1.389       .  A
C1163      H1168   1.087       .  S
C1164      C1460   1.476       .  S
C1165      C1166   1.406       .  A
C1165      H1169   1.074       .  S
C1166      C1167   1.419       .  A
C1166      C1181   1.506       .  S
C1167      H1170   1.083       .  S
C1171      C1172   1.418       .  A
C1171      C1176   1.398       .  A
C1171      C1344   1.486       .  S
C1172      C1173   1.430       .  A
C1172      H1177   1.083       .  S
C1173      C1174   1.404       .  A
C1173      C1184   1.508       .  S
C1174      C1175   1.396       .  A
C1174      H1178   1.074       .  S
C1175      C1176   1.384       .  A
C1175      C1463   1.471       .  S
C1176      H1179   1.086       .  S
C1180      C1181   1.428       .  A
C1180      C1185   1.434       .  A
C1181      C1182   1.427       .  A
C1182      C1183   1.429       .  A
C1183      C1184   1.428       .  A
C1184      C1185   1.429       .  A
O1186      C1202   1.276       .  A
O1186     Zn1192   1.972       .  S
C1187      C1236   1.488       .  S
C1187      O1203   1.281       .  A
C1187      O1200   1.271       .  A
O1188      C1201   1.286       .  A
O1188     Cd1195   2.193       .  S
O1189      C1207   1.278       .  A
O1189     Cd1198   2.072       .  S
O1190      C1204   1.279       .  A
O1190     Cd1194   2.096       .  S
O1191      C1202   1.271       .  A
O1191     Cd1194   2.089       .  S
Zn1192     O1203   2.092       .  S
Zn1192     O1205   1.990       .  S
Zn1192     O1197   1.881       .  S
O1193      C1204   1.271       .  A
O1193     Cd1198   2.059       .  S
Cd1194     O1196   2.084       .  S
Cd1194     O1197   2.032       .  S
Cd1195     O1199   2.138       .  S
Cd1195     O1208   2.134       .  S
Cd1195     O1197   2.042       .  S
O1196      C1206   1.275       .  A
O1197     Cd1198   2.004       .  S
Cd1198     O1200   2.074       .  S
O1199      C1206   1.284       .  A
C1201      C1218   1.523       .  S
C1201      O1205   1.276       .  A
C1202      C1254   1.470       .  S
C1207      O1208   1.287       .  A
C1209      C1210   1.419       .  A
C1209      C1214   1.392   1_565  A
C1209      C1367   1.466       .  S
C1210      H1215   1.083       .  S
C1211      C1212   1.415       .  A
C1211      C1265   1.520       .  S
C1212      C1213   1.400       .  A
C1212      H1216   1.076       .  S
C1213      C1449   1.464       .  S
C1214      H1217   1.088       .  S
C1218      C1219   1.405       .  A
C1218      C1223   1.431       .  A
C1219      C1220   1.384       .  A
C1219      H1224   1.082       .  S
C1220      C1221   1.384       .  A
C1220      C1446   1.464       .  S
C1221      C1222   1.401       .  A
C1221      H1225   1.079       .  S
C1222      C1223   1.445       .  A
C1222      C1268   1.506       .  S
C1223      H1226   1.082       .  S
C1227      C1228   1.406       .  A
C1227      C1232   1.418       .  A
C1227      C1368   1.507       .  S
C1228      C1229   1.388       .  A
C1228      H1233   1.084       .  S
C1229      C1230   1.386       .  A
C1229      C1432   1.457       .  S
C1230      C1231   1.397       .  A
C1230      H1234   1.082       .  S
C1231      C1232   1.431       .  A
C1231      C1267   1.491       .  S
C1232      H1235   1.083       .  S
C1236      C1237   1.390       .  A
C1236      C1241   1.433       .  A
C1237      C1238   1.377       .  A
C1237      H1242   1.089       .  S
C1238      C1239   1.391       .  A
C1238      C1435   1.461       .  S
C1239      C1240   1.414       .  A
C1239      H1243   1.079       .  S
C1240      C1241   1.441       .  A
C1240      C1264   1.531       .  S
C1241      H1244   1.082       .  S
C1245      C1246   1.389       .  A
C1245      C1250   1.424       .  A
C1245      C1353   1.486       .  S
C1246      H1251   1.087       .  S
C1247      C1248   1.381       .  A
C1247      C1421   1.449       .  S
C1248      C1249   1.406   1_655  A
C1248      H1252   1.069       .  S
C1249      C1263   1.533   1_455  S
C1250      H1253   1.055       .  S
C1254      C1255   1.397       .  A
C1254      C1259   1.418       .  A
C1255      C1256   1.380       .  A
C1255      H1260   1.087       .  S
C1256      C1257   1.376       .  A
C1256      C1418   1.433       .  S
C1257      C1258   1.386       .  A
C1258      C1259   1.421       .  A
C1258      C1266   1.477       .  S
C1259      H1262   1.083       .  S
C1263      C1264   1.448       .  A
C1265      C1266   1.391       .  A
C1267      C1268   1.408       .  A
C1269      C1270   1.396       .  A
C1269      C1274   1.418       .  A
C1269      C1372   1.477       .  S
C1270      C1271   1.388       .  A
C1270      H1275   1.087       .  S
C1271      C1272   1.398       .  A
C1271      C1404   1.474       .  S
C1272      C1273   1.405       .  A
C1272      H1276   1.073       .  S
C1273      C1274   1.427       .  A
C1273      C1323   1.513       .  S
C1274      H1277   1.083       .  S
C1278      C1279   1.414       .  A
C1278      C1283   1.393       .  A
C1278      C1350   1.471       .  S
C1279      C1280   1.426       .  A
C1279      H1284   1.083       .  S
C1280      C1281   1.408       .  A
C1280      C1326   1.509       .  S
C1281      C1282   1.400       .  A
C1281      H1285   1.075       .  S
C1282      C1283   1.384       .  A
C1287      C1288   1.416       .  A
C1288      C1289   1.425       .  A
C1288      H1293   1.083       .  S
C1289      C1290   1.405       .  A
C1289      C1327   1.507       .  S
C1290      C1291   1.395       .  A
C1290      H1294   1.073       .  S
C1292      H1295   1.088       .  S
C1296      C1297   1.392       .  A
C1296      C1301   1.419       .  A
C1296      C1349   1.473       .  S
C1297      C1298   1.382       .  A
C1298      C1299   1.395       .  A
C1299      C1300   1.405       .  A
C1299      H1303   1.074       .  S
C1300      C1301   1.430       .  A
C1300      C1324   1.507       .  S
C1301      H1304   1.083       .  S
C1305      C1306   1.394       .  A
C1305      C1310   1.416       .  A
C1305      C1347   1.472       .  S
C1306      C1307   1.386       .  A
C1306      H1311   1.087       .  S
C1307      C1308   1.394       .  A
C1307      C1376   1.468       .  S
C1308      C1309   1.402       .  A
C1308      H1312   1.075       .  S
C1309      C1310   1.426       .  A
C1309      C1328   1.502       .  S
C1310      H1313   1.083       .  S
C1314      C1319   1.392       .  A
C1314      C1370   1.480       .  S
C1315      C1316   1.430       .  A
C1315      H1320   1.083       .  S
C1316      C1317   1.402       .  A
C1316      C1325   1.508       .  S
C1317      H1321   1.075       .  S
C1318      C1319   1.386       .  A
C1318      C1379   1.466       .  S
C1319      H1322   1.087       .  S
C1323      C1324   1.429       .  A
C1323      C1328   1.426       .  A
C1324      C1325   1.431       .  A
C1325      C1326   1.428       .  A
C1326      C1327   1.425       .  A
C1327      C1328   1.427       .  A
O1329      C1345   1.272       .  A
C1330      O1343   1.277       .  A
O1331      C1344   1.277       .  A
O1331     Cd1338   2.127       .  S
O1332      C1350   1.280       .  A
O1332     Cd1341   2.091   1_656  S
O1333      C1347   1.281       .  A
O1333     Cd1337   2.098       .  S
O1334      C1345   1.276       .  A
O1334     Cd1337   2.124   1_554  S
Zn1335     O1346   2.009   1_655  S
Zn1335     O1340   1.835       .  S
O1336      C1347   1.280       .  A
Cd1338     O1342   2.096   1_554  S
O1340     Cd1341   1.995   1_655  S
O1342      C1349   1.280       .  A
C1344      O1348   1.271   1_565  A
C1350      O1351   1.282       .  A
O1352      C1368   1.274       .  A
O1352     Zn1358   1.970       .  S
C1353      O1369   1.280       .  A
C1353      O1366   1.272       .  A
O1354      C1367   1.268       .  A
O1354     Cd1361   2.052       .  S
O1355      C1373   1.274       .  A
O1355     Cd1364   2.076       .  S
O1356      C1370   1.284       .  A
O1356     Cd1360   2.128       .  S
O1357      C1368   1.286       .  A
O1357     Cd1360   2.167       .  S
Zn1358     O1369   2.076       .  S
Zn1358     O1371   2.049       .  S
Zn1358     O1363   1.890       .  S
O1359      C1370   1.279       .  A
O1359     Cd1364   2.077       .  S
Cd1360     O1362   2.132       .  S
Cd1360     O1363   2.030       .  S
Cd1361     O1365   2.059       .  S
Cd1361     O1374   2.089       .  S
Cd1361     O1363   2.006       .  S
O1362      C1372   1.283       .  A
O1363     Cd1364   1.991       .  S
Cd1364     O1366   2.076       .  S
O1365      C1372   1.270       .  A
C1367      O1371   1.281       .  A
C1373      O1374   1.279       .  A
C1375      C1376   1.411       .  A
C1375      C1380   1.395       .  A
C1375      H1382   1.084       .  S
C1376      C1377   1.405       .  A
C1377      C1378   1.395       .  A
C1377      N1384   1.437       .  S
C1378      C1379   1.410       .  A
C1378      H1383   1.084       .  S
C1379      C1380   1.405       .  A
C1380      N1381   1.437       .  S
N1381      H1385   1.046       .  S
N1381      H1386   1.044       .  S
N1384      H1387   1.044       .  S
N1384      H1388   1.046       .  S
C1389      C1390   1.388       .  A
C1389      C1394   1.397       .  A
C1389      H1396   1.084       .  S
C1390      C1391   1.422       .  A
C1391      C1392   1.399       .  A
C1391      N1398   1.438   1_565  S
C1392      C1393   1.390       .  A
C1393      C1394   1.423       .  A
C1394      N1395   1.437       .  S
N1395      H1399   1.046       .  S
N1395      H1400   1.041       .  S
N1398      H1401   1.043       .  S
N1398      H1402   1.044       .  S
C1403      C1404   1.409       .  A
C1403      C1408   1.397       .  A
C1403      H1410   1.084       .  S
C1404      C1405   1.404       .  A
C1405      C1406   1.397       .  A
C1405      N1412   1.431       .  S
C1406      C1407   1.410       .  A
C1406      H1411   1.084       .  S
C1407      C1408   1.406       .  A
N1409      H1413   1.045       .  S
N1409      H1414   1.045       .  S
N1412      H1415   1.045       .  S
N1412      H1416   1.045       .  S
C1417      C1418   1.378   1_455  A
C1418      C1419   1.406       .  A
C1419      C1420   1.393       .  A
C1419      N1426   1.430       .  S
C1420      C1421   1.394       .  A
C1420      H1425   1.084       .  S
C1422      N1423   1.431       .  S
N1423      H1427   1.046       .  S
N1423      H1428   1.045       .  S
N1426      H1429   1.039       .  S
N1426      H1430   1.045       .  S
C1431      C1432   1.395       .  A
C1431      C1436   1.387       .  A
C1431      H1438   1.084       .  S
C1432      C1433   1.409       .  A
C1433      C1434   1.405       .  A
C1433      N1440   1.435       .  S
C1434      C1435   1.398       .  A
C1434      H1439   1.083       .  S
C1435      C1436   1.414       .  A
C1436      N1437   1.440       .  S
N1437      H1441   1.046       .  S
N1437      H1442   1.045       .  S
N1440      H1443   1.045       .  S
N1440      H1444   1.046       .  S
C1445      C1446   1.406       .  A
C1445      C1450   1.410       .  A
C1445      H1452   1.083       .  S
C1446      C1447   1.411       .  A
C1447      C1448   1.385       .  A
C1447      N1454   1.439       .  S
C1448      C1449   1.396       .  A
C1448      H1453   1.085       .  S
C1449      C1450   1.406       .  A
C1450      N1451   1.437       .  S
N1451      H1455   1.046       .  S
N1451      H1456   1.045       .  S
N1454      H1457   1.040       .  S
N1454      H1458   1.046       .  S
C1459      C1460   1.411       .  A
C1459      C1464   1.396       .  A
C1459      H1466   1.083       .  S
C1460      C1461   1.406       .  A
C1461      C1462   1.393       .  A
C1461      N1468   1.429       .  S
C1462      C1463   1.408       .  A
C1462      H1467   1.084       .  S
C1463      C1464   1.405       .  A
C1464      N1465   1.431       .  S
N1465      H1469   1.045       .  S
N1465      H1470   1.044       .  S
N1468      H1471   1.042       .  S
N1468      H1472   1.045       .  S
C1473      C1474   1.411       .  A
C1473      C1478   1.403       .  A
C1473      H1480   1.084       .  S
C1474      C1475   1.398       .  A
C1475      C1476   1.401       .  A
C1475      N1482   1.436       .  S
C1476      C1477   1.411       .  A
C1476      H1481   1.084       .  S
C1477      C1478   1.401       .  A
C1478      N1479   1.437       .  S
N1479      H1483   1.046       .  S
N1482      H1486   1.046       .  S
C1487      C1488   1.390       .  A
C1487      C1492   1.396       .  A
C1487      H1494   1.084       .  S
C1488      C1489   1.421       .  A
C1489      C1490   1.394       .  A
C1489      N1496   1.432       .  S
C1490      C1491   1.387       .  A
C1490      H1495   1.084       .  S
C1491      C1492   1.419       .  A
C1492      N1493   1.432       .  S
N1493      H1497   1.044       .  S
N1493      H1498   1.046       .  S
N1496      H1499   1.045       .  S
N1496      H1500   1.043       .  S
