geometry optimzed in LAMMPS
_audit_creation_date              2020-11-30 
_audit_creation_method            'lammps2cif' 
_symmetry_space_group_name_H-M    'P1' 
_symmetry_Int_Tables_number       1 
_symmetry_cell_setting            triclinic 
loop_ 
_symmetry_equiv_pos_as_xyz 
  x,y,z 
_cell_length_a                    33.95566675 
_cell_length_b                    33.51328434815088 
_cell_length_c                    38.05873177142894 
_cell_angle_alpha                 88.99596301954753 
_cell_angle_beta                  91.73291838839003 
_cell_angle_gamma                 120.79192799748546 
loop_ 
_atom_site_label 
_atom_site_type_symbol 
_atom_site_fract_x 
_atom_site_fract_y 
_atom_site_fract_z 
_atom_site_charge 
C1          C  0.67724977  0.38201191  0.52547807     0.04000
C2          C  0.63545422  0.34447205  0.99689195    -0.12200
C3          C  0.62817878  0.29934162  0.99844579     0.01500
C4          C  0.66559134  0.29302684  0.00613752    -0.10700
C5          C  0.70934206  0.33122501  0.52628452     0.04000
C6          C  0.71441828  0.37521263  0.53072399    -0.10100
H7          H  0.60650761  0.34912860  0.99167706     0.09600
H8          H  0.66009271  0.25828021  0.00705864     0.07100
H9          H  0.74790618  0.40474516  0.53736968     0.06900
C10         C  0.37739752  0.67728498  0.98957529     0.04000
C11         C  0.34042947  0.63384227  0.99936640    -0.12200
C12         C  0.29609386  0.62675194  0.00237792     0.01500
C13         C  0.28934014  0.66468811  0.99702929    -0.10700
C14         C  0.32627144  0.70864621  0.98746531     0.04000
C15         C  0.36967366  0.71404323  0.98309432    -0.10100
H16         H  0.34554003  0.60466620  0.00302779     0.09600
H17         H  0.25562384  0.65999604  0.99976378     0.07100
H18         H  0.39799309  0.74748649  0.97509418     0.06900
C19         C  0.70017135  0.70544088  0.99117740    -0.01600
C20         C  0.99701536  0.29358987  0.00043616    -0.01600
C21         C  0.29432342  0.00404966  0.00054156    -0.01600
Fe22       Fe  0.94579597  0.99619713  0.25553241     1.65800
Fe23       Fe  0.99530886  0.93119074  0.24186587     1.73200
Fe24       Fe  0.06220486  0.04997846  0.24430256     1.54400
O25         O  0.03804418  0.07890768  0.20639164    -0.80800
O26         O  0.04613143  0.94718053  0.27930684    -0.79100
O27         O  0.96309865  0.04555419  0.21683616    -0.83300
O28         O  0.97616853  0.04670173  0.29402677    -0.78200
O29         O  0.08559280  0.02749905  0.20387365    -0.80000
O30         O  0.94819741  0.90056582  0.28118335    -0.82700
C31         C  0.01698983  0.07855056  0.30114929     0.98100
C32         C  0.99848436  0.07352545  0.19989135     1.05500
O33         O  0.00123242  0.99256133  0.24726031    -1.11700
O34         O  0.94408505  0.91023518  0.20376232    -0.74100
O35         O  0.90709196  0.94655648  0.21783756    -0.77600
O36         O  0.05094606  0.08325164  0.28464842    -0.78300
C37         C  0.91136485  0.91795899  0.19927205     0.97000
O38         O  0.92203291  0.94683983  0.29514205    -0.76300
O39         O  0.04174685  0.95074909  0.20218116    -0.81400
C40         C  0.07986747  0.98407930  0.29207711     0.99600
C41         C  0.07531682  0.98843023  0.19143064     1.05500
O42         O  0.09036534  0.02481202  0.28187465    -0.77100
C43         C  0.92416206  0.91043630  0.29992502     1.03800
C44         C  0.23812103  0.01281668  0.08609667     0.19500
C45         C  0.21671529  0.98054848  0.11325018    -0.18500
C46         C  0.18520199  0.98316922  0.13456787    -0.10800
C47         C  0.17513825  0.01877116  0.12955797     0.21800
C48         C  0.19821466  0.05233939  0.10349918    -0.20200
C49         C  0.22905226  0.04919252  0.08172138    -0.11000
C50         C  0.14255867  0.02285581  0.15238934    -0.15200
C51         C  0.10460778  0.98546830  0.16474882    -0.29000
C52         C  0.26865430  0.00700274  0.06212651    -0.03300
C53         C  0.26817919  0.01471171  0.02732031    -0.39800
H54         H  0.22355585  0.95257580  0.11741575     0.12900
H55         H  0.16919598  0.95767781  0.15525386     0.12600
H56         H  0.19180201  0.08064293  0.09963319     0.12000
H57         H  0.24595872  0.07535754  0.06160900     0.12200
H58         H  0.15002609  0.05747548  0.15906898     0.15000
H59         H  0.09601445  0.95098690  0.15653266     0.13800
H60         H  0.28815926  0.99172948  0.07247933     0.11400
H61         H  0.24627898  0.02748951  0.01739405     0.13500
C62         C  0.21231012  0.99017368  0.42614148     0.19500
C63         C  0.16676258  0.95669701  0.41739631    -0.18500
C64         C  0.14391576  0.96332105  0.38885534    -0.10800
C65         C  0.16622723  0.00374411  0.36806199     0.21800
C66         C  0.21169947  0.03749092  0.37691486    -0.20200
C67         C  0.23465571  0.03083274  0.40558115    -0.11000
C68         C  0.14221011  0.01236133  0.33810973    -0.15200
C69         C  0.10671874  0.97751010  0.32039865    -0.29000
C70         C  0.23313134  0.98291059  0.45874721    -0.03300
C71         C  0.27807613  0.00752042  0.46801502    -0.39800
H72         H  0.14836391  0.92553440  0.43318159     0.12900
H73         H  0.10833356  0.93723839  0.38397030     0.12600
H74         H  0.22942860  0.06925424  0.36171887     0.12000
H75         H  0.26922707  0.05822732  0.41201992     0.12200
H76         H  0.15432991  0.04805541  0.33025176     0.15000
H77         H  0.09611433  0.94180028  0.32693479     0.13800
H78         H  0.20974350  0.95696480  0.47716783     0.11400
H79         H  0.30269419  0.03224109  0.44970329     0.13500
C80         C  0.00176643  0.15185582  0.37141629     0.19500
C81         C  0.97040895  0.16699479  0.37493944    -0.18500
C82         C  0.97589856  0.19748679  0.40190487    -0.10800
C83         C  0.01282484  0.21329182  0.42629059     0.21800
C84         C  0.04413967  0.19809108  0.42284362    -0.20200
C85         C  0.03892481  0.16796377  0.39564418    -0.11000
C86         C  0.01679066  0.24143262  0.45754856    -0.15200
C87         C  0.99946023  0.26984760  0.45833992    -0.29000
C88         C  0.99313995  0.11746252  0.34342686    -0.03300
C89         C  0.02624601  0.11206434  0.32967399    -0.39800
H90         H  0.94117079  0.15472490  0.35696376     0.12900
H91         H  0.95015321  0.20709437  0.40435078     0.12600
H92         H  0.07237513  0.20899177  0.44164486     0.12000
H93         H  0.06314150  0.15617446  0.39450933     0.12200
H94         H  0.03414280  0.23786540  0.48073349     0.15000
H95         H  0.98676327  0.27683153  0.43384750     0.13800
H96         H  0.95834975  0.09702960  0.33277048     0.11400
H97         H  0.06171038  0.13442480  0.33817903     0.13500
C98         C  0.01206480  0.15337196  0.12067492     0.19500
C99         C  0.04640855  0.19720893  0.10906953    -0.18500
C100        C  0.03646767  0.22162759  0.08350751    -0.10800
C101        C  0.99182126  0.20243114  0.06880981     0.21800
C102        C  0.95800916  0.15783049  0.07942701    -0.20200
C103        C  0.96789170  0.13354032  0.10499552    -0.11000
C104        C  0.98014265  0.22597050  0.04035241    -0.15200
C105        C  0.00483241  0.27200353  0.03381321    -0.29000
C106        C  0.02300427  0.12894005  0.14898881    -0.03300
C107        C  0.99101910  0.09971336  0.17144688    -0.39800
H108        H  0.08091878  0.21284133  0.12010813     0.12900
H109        H  0.06408924  0.25499003  0.07489983     0.12600
H110        H  0.92374756  0.14162382  0.06781957     0.12000
H111        H  0.94093555  0.09895446  0.11201338     0.12200
H112        H  0.95121738  0.20425135  0.02288995     0.15000
H113        H  0.03214678  0.29444961  0.05213598     0.13800
H114        H  0.05807663  0.13651793  0.15228638     0.11400
H115        H  0.95666046  0.09429734  0.16915539     0.13500
C116        C  0.83992680  0.84542951  0.37508387     0.19500
C117        C  0.79791217  0.84001341  0.38487705    -0.18500
C118        C  0.77151412  0.80763394  0.41067680    -0.10800
C119        C  0.78682755  0.78000061  0.42743128     0.21800
C120        C  0.82911534  0.78593383  0.41786689    -0.20200
C121        C  0.85543883  0.81825600  0.39220120    -0.11000
C122        C  0.76191433  0.74674443  0.45641575    -0.15200
C123        C  0.71978684  0.73480576  0.46736419    -0.29000
C124        C  0.86710668  0.88025362  0.34756788    -0.03300
C125        C  0.89800833  0.87726702  0.32815613    -0.39800
H126        H  0.78539795  0.86087597  0.37245232     0.12900
H127        H  0.73975630  0.80523176  0.41758503     0.12600
H128        H  0.84225941  0.76583589  0.43068221     0.12000
H129        H  0.88834619  0.82240399  0.38653519     0.12200
H130        H  0.78007258  0.73236895  0.47070122     0.15000
H131        H  0.70014447  0.74775840  0.45363543     0.13800
H132        H  0.86002558  0.90794225  0.34209475     0.11400
H133        H  0.90329945  0.84816384  0.33181003     0.13500
C134        C  0.84434104  0.84020735  0.11954798     0.19500
C135        C  0.84270850  0.80205378  0.10335714    -0.18500
C136        C  0.81075083  0.77797257  0.07625181    -0.10800
C137        C  0.77960586  0.79168086  0.06474121     0.21800
C138        C  0.78198879  0.83045498  0.08037606    -0.20200
C139        C  0.81393550  0.85454404  0.10737204    -0.11000
C140        C  0.74575108  0.76839282  0.03544328    -0.15200
C141        C  0.73252471  0.72573788  0.02317976    -0.29000
C142        C  0.87904403  0.86486127  0.14817180    -0.03300
C143        C  0.87632472  0.89320661  0.17134745    -0.39800
H144        H  0.86628936  0.79080504  0.11171853     0.12900
H145        H  0.81138717  0.74940559  0.06411926     0.12600
H146        H  0.75909281  0.84236578  0.07153822     0.12000
H147        H  0.81503521  0.88480868  0.11795360     0.12200
H148        H  0.73078368  0.78727841  0.02314611     0.15000
H149        H  0.74592734  0.70556583  0.03553799     0.13800
H150        H  0.90744926  0.85865982  0.15065844     0.11400
H151        H  0.84751091  0.89869881  0.17026582     0.13500
C152        C  0.10975788  0.41398565  0.49260465     0.19500
C153        C  0.15439285  0.42705689  0.50414029    -0.18500
C154        C  0.18859951  0.47386259  0.50703151    -0.10800
C155        C  0.17906172  0.50920369  0.49844475     0.21800
C156        C  0.13439195  0.49612580  0.48674315    -0.20200
C157        C  0.10008202  0.44915787  0.48385830    -0.11000
C158        C  0.21375771  0.56166773  0.00093178    -0.15200
C159        C  0.25819313  0.57869911  0.01035643    -0.29000
C160        C  0.07504779  0.36340539  0.48988716    -0.03300
C161        C  0.03048304  0.34605722  0.00008087    -0.39800
H162        H  0.16300281  0.40082096  0.51082102     0.12900
H163        H  0.22259189  0.48166385  0.51502240     0.12600
H164        H  0.12611002  0.52240207  0.47937293     0.12000
H165        H  0.06652707  0.44085105  0.47405676     0.12200
H166        H  0.20408792  0.58436548  0.98755418     0.15000
H167        H  0.26464879  0.55380905  0.52976798     0.13800
H168        H  0.08767398  0.33942218  0.49120601     0.11400
H169        H  0.01683665  0.36913483  0.99807942     0.13500
C170        C  0.29442822  0.88621961  0.49276413     0.19500
C171        C  0.31130457  0.87063944  0.46632578    -0.18500
C172        C  0.30962993  0.82818507  0.46948100    -0.10800
C173        C  0.29040205  0.80159285  0.99155660     0.21800
C174        C  0.27588661  0.81793345  0.01913795    -0.20200
C175        C  0.27798503  0.86077568  0.01650220    -0.11000
C176        C  0.29070435  0.75741792  0.99627179    -0.15200
C177        C  0.32122247  0.74972579  0.98046262    -0.29000
C178        C  0.30064965  0.93350281  0.48882295    -0.03300
C179        C  0.28283927  0.95357263  0.00404141    -0.39800
H180        H  0.32638808  0.89170383  0.44315037     0.12900
H181        H  0.32267530  0.81747124  0.44828996     0.12600
H182        H  0.26427248  0.79817042  0.04330245     0.12000
H183        H  0.26835273  0.87280713  0.03901367     0.12200
H184        H  0.26813835  0.73268171  0.01561137     0.15000
H185        H  0.35136198  0.77767727  0.47632532     0.13800
H186        H  0.32188862  0.95483500  0.46741278     0.11400
H187        H  0.25952764  0.93196986  0.02429299     0.13500
C188        C  0.48705713  0.66829149  0.99384065     0.19500
C189        C  0.51074935  0.65961132  0.02091272    -0.18500
C190        C  0.55409722  0.66572878  0.01531316    -0.10800
C191        C  0.57258225  0.67455269  0.49206470     0.21800
C192        C  0.54710850  0.67908322  0.46422949    -0.20200
C193        C  0.50426931  0.67396875  0.47004344    -0.11000
C194        C  0.61794972  0.68031228  0.48496149    -0.15200
C195        C  0.65385992  0.70007970  0.99914898    -0.29000
C196        C  0.44073349  0.66074780  0.00048250    -0.03300
C197        C  0.42385147  0.68474112  0.98362600    -0.39800
H198        H  0.49572355  0.64822172  0.04651928     0.12900
H199        H  0.57120989  0.65826976  0.03663273     0.12600
H200        H  0.56062564  0.68706124  0.43797095     0.12000
H201        H  0.48537463  0.67747257  0.44797551     0.12200
H202        H  0.62315025  0.67065215  0.45914952     0.15000
H203        H  0.64867651  0.70883753  0.02529900     0.13800
H204        H  0.42097637  0.63627142  0.02100731     0.11400
H205        H  0.44636627  0.70922953  0.47599559     0.13500
C206        C  0.51170397  0.18436227  0.00731278     0.19500
C207        C  0.49636980  0.13743994  0.01427731    -0.18500
C208        C  0.44940328  0.10402917  0.01343562    -0.10800
C209        C  0.41650319  0.11698845  0.00589425     0.21800
C210        C  0.43198322  0.16412211  0.99972042    -0.20200
C211        C  0.47878907  0.19737696  0.00053063    -0.11000
C212        C  0.36599502  0.08328881  0.00363200    -0.15200
C213        C  0.34592963  0.03669739  0.00637418    -0.29000
C214        C  0.56185500  0.21927310  0.00925288    -0.03300
C215        C  0.58045776  0.26034775  0.99226901    -0.39800
H216        H  0.52086189  0.12653680  0.02019130     0.12900
H217        H  0.43957503  0.06841743  0.01879938     0.12600
H218        H  0.40769006  0.17540816  0.99425441     0.12000
H219        H  0.48877963  0.23335633  0.99656384     0.12200
H220        H  0.34391727  0.09741847  0.99806265     0.15000
H221        H  0.36669841  0.02125410  0.01200087     0.13800
H222        H  0.58353591  0.21144038  0.02595550     0.11400
H223        H  0.55584922  0.27103392  0.49627317     0.13500
C224        C  0.67274617  0.57760434  0.00038309     0.19500
C225        C  0.67707384  0.55374442  0.02947709    -0.18500
C226        C  0.67431594  0.51107476  0.02523112    -0.10800
C227        C  0.66646239  0.49098878  0.99173148     0.21800
C228        C  0.66069465  0.51409892  0.96270753    -0.20200
C229        C  0.66422495  0.55727839  0.96687697    -0.11000
C230        C  0.66168628  0.44485772  0.98694375    -0.15200
C231        C  0.68576900  0.43055367  0.00667733    -0.29000
C232        C  0.67638568  0.62301082  0.00632310    -0.03300
C233        C  0.69300498  0.65781602  0.98256930    -0.39800
H234        H  0.69629338  0.57839816  0.57356096     0.12900
H235        H  0.68777154  0.50146614  0.56965771     0.12100
H236        H  0.65373043  0.49882302  0.93674909     0.12000
H237        H  0.65939144  0.57414111  0.94404039     0.12200
H238        H  0.63862923  0.42269026  0.96612933     0.15000
H239        H  0.71206924  0.45328998  0.54716812     0.13800
H240        H  0.67561116  0.63631318  0.54836274     0.11400
H241        H  0.70304094  0.65251230  0.95703568     0.13500
C242        C  0.88491136  0.29481637  0.02193326     0.19500
C243        C  0.87649088  0.32299853  0.04361441    -0.18500
C244        C  0.83469382  0.32189892  0.04134011    -0.10800
C245        C  0.80099048  0.29527676  0.51694894     0.21800
C246        C  0.81069073  0.27409625  0.48976047    -0.20200
C247        C  0.85246499  0.27518736  0.48933406    -0.11000
C248        C  0.75681849  0.29498991  0.51530126    -0.15200
C249        C  0.75136100  0.32846613  0.02062567    -0.29000
C250        C  0.93111086  0.29935368  0.02419074    -0.03300
C251        C  0.94780892  0.28413216  0.99929386    -0.39800
H252        H  0.90268568  0.34656523  0.06213448     0.12900
H253        H  0.82982744  0.34401275  0.05881489     0.12600
H254        H  0.78617618  0.25743000  0.46825854     0.12000
H255        H  0.85823456  0.25918037  0.46728348     0.12200
H256        H  0.72964363  0.26961008  0.49821111     0.15000
H257        H  0.78090562  0.35935006  0.03150720     0.13800
H258        H  0.95368687  0.31870862  0.04621402     0.11400
H259        H  0.92315830  0.26329128  0.47081939     0.13500
C260        C  0.67878978  0.38317655  0.00439914     0.04000
C261        C  0.63391059  0.34367768  0.51713757    -0.12200
C262        C  0.62726780  0.29894808  0.51376827     0.01500
C263        C  0.66536378  0.29288826  0.51801454    -0.10700
C264        C  0.70982927  0.33188315  0.01275122     0.04000
C265        C  0.71546538  0.37648169  0.01263869    -0.10100
H266        H  0.60465139  0.34830655  0.51429071     0.09600
H267        H  0.66082966  0.25876070  0.51508582     0.07100
H268        H  0.74892705  0.40648355  0.01860623     0.06900
C269        C  0.37782004  0.67488214  0.49930677     0.04000
C270        C  0.33994899  0.63121230  0.50734267    -0.12200
C271        C  0.29576463  0.62473625  0.50900400     0.01500
C272        C  0.28987199  0.66324435  0.50431246    -0.10700
C273        C  0.32783632  0.70757323  0.49704487     0.04000
C274        C  0.37124338  0.71253852  0.49383017    -0.10100
H275        H  0.34423848  0.60143660  0.51033324     0.09600
H276        H  0.25598376  0.65853349  0.50580601     0.07100
H277        H  0.40037708  0.74621125  0.48729476     0.06900
C278        C  0.70011473  0.70571782  0.50064923    -0.01600
C279        C  0.99545808  0.29303676  0.49146294    -0.01600
C280        C  0.29468592  0.00265859  0.50482391    -0.01600
Fe281      Fe  0.95142096  0.01209146  0.75693854     1.65800
Fe282      Fe  0.99944865  0.94667582  0.73915358     1.73200
Fe283      Fe  0.06729718  0.06500398  0.74395204     1.54400
O284        O  0.04312691  0.09456204  0.70691317    -0.80800
O285        O  0.05341022  0.96184498  0.77345486    -0.79100
O286        O  0.97042671  0.06643300  0.72226640    -0.83300
O287        O  0.98268811  0.05709571  0.79850174    -0.78200
O288        O  0.09057619  0.04253615  0.70316517    -0.80000
O289        O  0.95637234  0.91590351  0.78059748    -0.82700
C290        C  0.02329268  0.09032070  0.80416026     0.98100
C291        C  0.00470039  0.09267205  0.70364065     1.05500
O292        O  0.00608922  0.00790937  0.74669363    -1.11700
O293        O  0.94502155  0.92606681  0.70404948    -0.74100
O294        O  0.91296338  0.96785881  0.71626404    -0.77600
O295        O  0.05636675  0.09783568  0.78504531    -0.78300
C296        C  0.91478981  0.93719991  0.69847832     0.97000
O297        O  0.92515302  0.95812082  0.79302986    -0.76300
O298        O  0.04178857  0.96692351  0.69686206    -0.81400
C299        C  0.08632206  0.99799020  0.78781719     0.99600
C300        C  0.07755636  0.00407076  0.68819132     1.05500
O301        O  0.09526579  0.03906454  0.78057308    -0.77100
C302        C  0.93009885  0.92347821  0.79849631     1.03800
C303        C  0.24041170  0.01653180  0.58945507     0.19500
C304        C  0.21332896  0.98279077  0.61426629    -0.18500
C305        C  0.18269246  0.98838822  0.63448742    -0.10800
C306        C  0.17933419  0.02844408  0.63080809     0.21800
C307        C  0.20797026  0.06313524  0.60713336    -0.20200
C308        C  0.23778484  0.05700702  0.58628354    -0.11000
C309        C  0.14795976  0.03560294  0.65278573    -0.15200
C310        C  0.10604289  0.00046100  0.66114623    -0.29000
C311        C  0.26988617  0.00814238  0.56625648    -0.03300
C312        C  0.27019361  0.01573923  0.53139106    -0.39800
H313        H  0.21503592  0.95150917  0.61734535     0.12900
H314        H  0.16210919  0.96167406  0.65334616     0.12600
H315        H  0.20665344  0.09465316  0.60433364     0.12000
H316        H  0.25893593  0.08396760  0.56776769     0.12200
H317        H  0.15993399  0.07031515  0.66260967     0.15000
H318        H  0.09367186  0.96633028  0.64993631     0.13800
H319        H  0.28738921  0.99102246  0.57713430     0.11400
H320        H  0.24979225  0.03018212  0.52122734     0.13500
C321        C  0.21592860  0.99667739  0.92048539     0.19500
C322        C  0.17003705  0.96480984  0.91137080    -0.18500
C323        C  0.14838611  0.97324404  0.88297803    -0.10800
C324        C  0.17225378  0.01384297  0.86264278     0.21800
C325        C  0.21813649  0.04600202  0.87172506    -0.20200
C326        C  0.23994155  0.03753304  0.90029635    -0.11000
C327        C  0.14905963  0.02417156  0.83315687    -0.15200
C328        C  0.11381944  0.99013718  0.81468238    -0.29000
C329        C  0.23528072  0.98729992  0.95300260    -0.03300
C330        C  0.27964761  0.01149420  0.96377772    -0.39800
H331        H  0.15040152  0.93354708  0.92680014     0.12900
H332        H  0.11245856  0.94845759  0.87782466     0.12600
H333        H  0.23703215  0.07786515  0.85681567     0.12000
H334        H  0.27496053  0.06369293  0.90687910     0.12200
H335        H  0.16109234  0.06026200  0.82664932     0.15000
H336        H  0.10365484  0.95418664  0.81981472     0.13800
H337        H  0.21107277  0.96002967  0.97022946     0.11400
H338        H  0.30521238  0.03780048  0.94685146     0.13500
C339        C  0.00806947  0.15922991  0.87757335     0.19500
C340        C  0.97777375  0.17570702  0.88065436    -0.18500
C341        C  0.98294701  0.20524064  0.90817861    -0.10800
C342        C  0.01847827  0.21869865  0.93357813     0.21800
C343        C  0.04873303  0.20206460  0.93057534    -0.20200
C344        C  0.04385567  0.17289362  0.90274589    -0.11000
C345        C  0.02163204  0.24554846  0.96537633    -0.15200
C346        C  0.00365240  0.27334318  0.96675980    -0.29000
C347        C  0.99959562  0.12590130  0.84895204    -0.03300
C348        C  0.03296887  0.12213538  0.83396949    -0.39800
H349        H  0.94959733  0.16523355  0.86186118     0.12900
H350        H  0.95786995  0.21580718  0.91018923     0.12600
H351        H  0.07577414  0.21105109  0.95017768     0.12000
H352        H  0.06710342  0.15985472  0.90171615     0.12200
H353        H  0.03824495  0.24094136  0.98859547     0.15000
H354        H  0.99210102  0.28181930  0.94234513     0.13800
H355        H  0.96471029  0.10546587  0.83847403     0.11400
H356        H  0.06850322  0.14485275  0.84220445     0.13500
C357        C  0.01403428  0.16703765  0.62208081     0.19500
C358        C  0.04893266  0.20579146  0.60475667    -0.18500
C359        C  0.03833755  0.22703803  0.57703862    -0.10800
C360        C  0.99246187  0.20955588  0.56586180     0.21800
C361        C  0.95770108  0.17020352  0.58263047    -0.20200
C362        C  0.96822841  0.14920921  0.61046223    -0.11000
C363        C  0.98007647  0.22937502  0.53521877    -0.15200
C364        C  0.00544903  0.27420499  0.52540776    -0.29000
C365        C  0.02625725  0.14441064  0.65095241    -0.03300
C366        C  0.99716450  0.12057959  0.67680028    -0.39800
H367        H  0.08449238  0.21961233  0.61266422     0.12900
H368        H  0.06621849  0.25625582  0.56381541     0.12600
H369        H  0.92224679  0.15546437  0.57400958     0.12000
H370        H  0.94042823  0.11824229  0.62208701     0.12200
H371        H  0.94940742  0.20623995  0.51982102     0.15000
H372        H  0.03440937  0.29791058  0.54205750     0.13800
H373        H  0.05960908  0.14727826  0.65082220     0.11400
H374        H  0.96472790  0.11955159  0.67772087     0.13500
C375        C  0.84514022  0.85514635  0.87232497     0.19500
C376        C  0.80219658  0.84804876  0.88119031    -0.18500
C377        C  0.77514688  0.81413892  0.90582840    -0.10800
C378        C  0.79073760  0.78662415  0.92238913     0.21800
C379        C  0.83411595  0.79444938  0.91394993    -0.20200
C380        C  0.86110243  0.82832763  0.88939666    -0.11000
C381        C  0.76437923  0.75074107  0.94949468    -0.15200
C382        C  0.72213871  0.73865407  0.96025332    -0.29000
C383        C  0.87243967  0.89098601  0.84551353    -0.03300
C384        C  0.90446987  0.88961827  0.82645901    -0.39800
H385        H  0.78930170  0.86857893  0.86874583     0.12900
H386        H  0.74244251  0.81020068  0.91169593     0.12600
H387        H  0.84745489  0.77444809  0.92664035     0.12000
H388        H  0.89468491  0.83375551  0.88441583     0.12200
H389        H  0.78132487  0.73413863  0.96238306     0.15000
H390        H  0.70385662  0.75414864  0.94814277     0.13800
H391        H  0.86426030  0.91791539  0.84003636     0.11400
H392        H  0.91110612  0.86139509  0.83016425     0.13500
C393        C  0.84576701  0.85607753  0.62074353     0.19500
C394        C  0.84644669  0.81885042  0.60507824    -0.18500
C395        C  0.81437393  0.79237142  0.57883790    -0.10800
C396        C  0.78046303  0.80236887  0.56772376     0.21800
C397        C  0.78056437  0.84047693  0.58252756    -0.20200
C398        C  0.81276018  0.86708775  0.60880624    -0.11000
C399        C  0.74570833  0.77507072  0.53989373    -0.15200
C400        C  0.73353578  0.73131920  0.53114208    -0.29000
C401        C  0.88053212  0.88227562  0.64895905    -0.03300
C402        C  0.87985166  0.91360551  0.67020895    -0.39800
H403        H  0.87194182  0.81006668  0.61323506     0.12900
H404        H  0.81693728  0.76468706  0.56707759     0.12600
H405        H  0.75542171  0.84952671  0.57387538     0.12000
H406        H  0.81160059  0.89621736  0.61924629     0.12200
H407        H  0.72908904  0.79138251  0.52606219     0.15000
H408        H  0.74856597  0.71389747  0.54548524     0.13800
H409        H  0.90759490  0.87429020  0.65302994     0.11400
H410        H  0.85308894  0.92205859  0.66750391     0.13500
C411        C  0.10952886  0.41561953  0.00431036     0.19500
C412        C  0.14994042  0.43231281  0.02475444    -0.18500
C413        C  0.18325271  0.47965271  0.02507273    -0.10800
C414        C  0.17750997  0.51144215  0.00399835     0.21800
C415        C  0.13643249  0.49471500  0.98418427    -0.20200
C416        C  0.10277816  0.44738437  0.98431028    -0.11000
C417        C  0.21531641  0.55958859  0.49863909    -0.15200
C418        C  0.25686553  0.57667705  0.51459822    -0.29000
C419        C  0.07628894  0.36474810  0.00322179    -0.03300
C420        C  0.02922097  0.34534551  0.48907495    -0.39800
H421        H  0.15572477  0.40855954  0.04064529     0.12900
H422        H  0.21329453  0.49074602  0.04183358     0.12600
H423        H  0.13082358  0.51819434  0.96779546     0.12000
H424        H  0.07228355  0.43555046  0.96783794     0.12200
H425        H  0.20820639  0.58303103  0.48345072     0.15000
H426        H  0.26861257  0.55534930  0.02127725     0.13800
H427        H  0.08979245  0.34171618  0.00704125     0.11400
H428        H  0.01568264  0.36847270  0.48873693     0.13500
C429        C  0.29407469  0.88801884  0.98582557     0.19500
C430        C  0.30705378  0.87080753  0.95780504    -0.18500
C431        C  0.30507549  0.82810566  0.96049438    -0.10800
C432        C  0.29131331  0.80016601  0.49947374     0.21800
C433        C  0.27286957  0.81478671  0.52539128    -0.20200
C434        C  0.27461843  0.85746047  0.52228025    -0.11000
C435        C  0.29145935  0.75596349  0.50449250    -0.15200
C436        C  0.32393011  0.74943375  0.49083459    -0.29000
C437        C  0.30081935  0.93558922  0.98257865    -0.03300
C438        C  0.28317765  0.95235139  0.50994374    -0.39800
H439        H  0.31933078  0.89078760  0.93378300     0.12900
H440        H  0.31514757  0.81606475  0.93819547     0.12600
H441        H  0.25821079  0.79371321  0.54863096     0.12000
H442        H  0.26142991  0.86793392  0.54345962     0.12200
H443        H  0.26646731  0.72988836  0.52192584     0.15000
H444        H  0.34665206  0.77675074  0.96383710     0.13800
H445        H  0.32238901  0.95749970  0.96151720     0.11400
H446        H  0.26062453  0.93187697  0.53090129     0.13500
C447        C  0.48566647  0.66331053  0.50379968     0.19500
C448        C  0.51046994  0.65723046  0.53140957    -0.18500
C449        C  0.55374732  0.66325149  0.52573392    -0.10800
C450        C  0.57428976  0.67994167  0.98222920     0.21800
C451        C  0.55011038  0.68744761  0.95492702    -0.20200
C452        C  0.50711646  0.68203155  0.96066325    -0.11000
C453        C  0.61947931  0.68525696  0.97492850    -0.15200
C454        C  0.65343743  0.69953812  0.50827634    -0.29000
C455        C  0.43977080  0.65660664  0.51049062    -0.03300
C456        C  0.42396824  0.68155095  0.49371464    -0.39800
H457        H  0.49648956  0.64822832  0.55749689     0.12900
H458        H  0.57198990  0.65817041  0.54751529     0.12600
H459        H  0.56464526  0.69771227  0.92907270     0.12000
H460        H  0.48924664  0.68756492  0.93885440     0.12200
H461        H  0.62549363  0.67873999  0.94831037     0.15000
H462        H  0.64883625  0.71138211  0.53339370     0.13800
H463        H  0.41956523  0.63218402  0.53090712     0.11400
H464        H  0.44561537  0.71246792  0.96572052     0.13500
C465        C  0.51358668  0.17905814  0.50733352     0.19500
C466        C  0.49491898  0.13809438  0.52748171    -0.18500
C467        C  0.44770291  0.10552711  0.52590739    -0.10800
C468        C  0.41812185  0.11319119  0.50387919     0.21800
C469        C  0.43700467  0.15328933  0.48288397    -0.20200
C470        C  0.48411463  0.18550610  0.48417143    -0.11000
C471        C  0.36742762  0.08125833  0.50272676    -0.15200
C472        C  0.34659021  0.03524482  0.50914180    -0.29000
C473        C  0.56330852  0.21495435  0.51200731    -0.03300
C474        C  0.57966709  0.26042689  0.50548820    -0.39800
H475        H  0.51671930  0.13195923  0.54535883     0.12900
H476        H  0.43440413  0.07532244  0.54282806     0.12600
H477        H  0.41513750  0.15974063  0.46532078     0.12000
H478        H  0.49706781  0.21540416  0.46698157     0.12200
H479        H  0.34641098  0.09563449  0.49408803     0.15000
H480        H  0.36752472  0.02027186  0.51628045     0.13800
H481        H  0.58577246  0.20419117  0.52407911     0.11400
H482        H  0.55872737  0.26773418  0.97526561     0.13500
C483        C  0.67656672  0.58029975  0.51926100     0.19500
C484        C  0.68552858  0.56008419  0.54872148    -0.18500
C485        C  0.68101787  0.51625281  0.54638489    -0.10800
C486        C  0.66664501  0.49145987  0.51456572     0.21800
C487        C  0.65651656  0.51120150  0.48542116    -0.20200
C488        C  0.66176246  0.55529759  0.48759478    -0.11000
C489        C  0.65970210  0.44414091  0.51121954    -0.15200
C490        C  0.68426636  0.42931382  0.52977383    -0.29000
C491        C  0.68117731  0.62658958  0.52269560    -0.03300
C492        C  0.69449524  0.65783068  0.49620651    -0.39800
H493        H  0.68300005  0.56839161  0.05560290     0.12900
H494        H  0.67736307  0.49339885  0.04830450     0.12100
H495        H  0.64463673  0.49246249  0.46080114     0.12000
H496        H  0.65320059  0.56925018  0.46470992     0.12200
H497        H  0.63519867  0.42168822  0.49120341     0.15000
H498        H  0.71220174  0.45469594  0.02491944     0.13800
H499        H  0.66832082  0.62949197  0.03227245     0.11400
H500        H  0.70234412  0.64913044  0.47100700     0.13500
C501        C  0.88569885  0.29721189  0.51650430     0.19500
C502        C  0.87532847  0.31722663  0.54424016    -0.18500
C503        C  0.83356423  0.31622137  0.54458721    -0.10800
C504        C  0.80006465  0.29256175  0.01704336     0.21800
C505        C  0.80766008  0.26284727  0.99649571    -0.20200
C506        C  0.84944062  0.26384317  0.99884025    -0.11000
C507        C  0.75596332  0.29215923  0.01214437    -0.15200
C508        C  0.75112581  0.32745334  0.53091801    -0.29000
C509        C  0.93192642  0.30167918  0.51669096    -0.03300
C510        C  0.94648186  0.28410583  0.49188685    -0.39800
H511        H  0.89985544  0.33411265  0.56570184     0.12900
H512        H  0.82695896  0.33166520  0.56666647     0.12600
H513        H  0.78138906  0.23923156  0.97804694     0.12000
H514        H  0.85341035  0.24015214  0.98251777     0.12200
H515        H  0.72785552  0.26262654  0.99860343     0.15000
H516        H  0.77988036  0.35526247  0.54534194     0.13800
H517        H  0.95596801  0.32177303  0.53780190     0.11400
H518        H  0.92628702  0.26589236  0.97661056     0.13500
loop_ 
_geom_bond_atom_site_label_1 
_geom_bond_atom_site_label_2 
_geom_bond_distance 
_geom_bond_site_symmetry_2 
_ccdc_geom_bond_type 
C1            C6   1.401       .  A
C1          C261   1.403       .  A
C1          C490   1.489       .  S
C2            C3   1.403       .  A
C2          C260   1.401   1_556  A
C2            H7   1.084       .  S
C3            C4   1.412   1_556  A
C3          C215   1.486       .  S
C4          C264   1.415       .  A
C4            H8   1.081       .  S
C5            C6   1.407       .  A
C5          C263   1.415       .  A
C5          C508   1.493       .  S
C6            H9   1.084       .  S
C10          C11   1.404       .  A
C10          C15   1.401       .  A
C10         C197   1.489       .  S
C11          C12   1.407   1_556  A
C11          H16   1.083   1_556  S
C12          C13   1.413   1_554  A
C12         C159   1.492       .  S
C13          C14   1.412       .  A
C13          H17   1.081       .  S
C14          C15   1.405       .  A
C14         C177   1.491       .  S
C15          H18   1.084       .  S
C19         C141   1.528   1_556  S
C19         C195   1.528       .  S
C19         C233   1.526       .  S
C19         C382   1.529       .  S
C20         C105   1.533   1_655  S
C20         C161   1.529   1_655  S
C20         C251   1.532   1_554  S
C20         C346   1.536   1_654  S
C21          C53   1.532       .  S
C21         C179   1.533   1_545  S
C21         C213   1.529       .  S
C21         C330   1.530   1_554  S
Fe22         O38   2.069       .  S
Fe22         O28   2.070   1_565  S
Fe22         O35   2.070       .  S
Fe22         O27   2.055   1_565  S
Fe22         O33   1.982   1_655  S
Fe23         O26   2.056   1_655  S
Fe23         O30   2.064       .  S
Fe23         O34   2.063       .  S
Fe23         O39   2.061   1_655  S
Fe23         O33   1.975   1_655  S
Fe24         O42   2.091       .  S
Fe24         O29   2.072       .  S
Fe24         O36   2.069       .  S
Fe24         O25   2.095       .  S
Fe24         O33   1.982   1_545  S
O25          C32   1.277   1_455  A
O26          C40   1.271       .  A
O27          C32   1.269       .  A
O28          C31   1.268   1_655  A
O29          C41   1.267   1_545  A
O30          C43   1.267       .  A
C31          C89   1.483       .  S
C31          O36   1.266       .  A
C32         C107   1.478       .  S
O34          C37   1.270       .  A
O35          C37   1.269       .  A
C37         C143   1.476       .  S
O38          C43   1.268       .  A
O39          C41   1.264       .  A
C40          C69   1.476       .  S
C40          O42   1.278   1_565  A
C41          C51   1.482       .  S
C43         C125   1.478       .  S
C44          C45   1.403   1_545  A
C44          C49   1.408       .  A
C44          C52   1.488       .  S
C45          C46   1.401       .  A
C45          H54   1.083       .  S
C46          C47   1.408   1_565  A
C46          H55   1.083       .  S
C47          C48   1.403       .  A
C47          C50   1.488       .  S
C48          C49   1.401       .  A
C48          H56   1.083       .  S
C49          H57   1.083       .  S
C50          H58   1.086       .  S
C50          C51   1.347   1_545  D
C51          H59   1.086       .  S
C52          H60   1.086   1_545  S
C52          C53   1.346       .  D
C53          H61   1.087       .  S
C62          C63   1.402       .  A
C62          C67   1.409   1_565  A
C62          C70   1.487       .  S
C63          C64   1.396       .  A
C63          H72   1.084       .  S
C64          C65   1.408   1_565  A
C64          H73   1.081       .  S
C65          C66   1.404       .  A
C65          C68   1.490       .  S
C66          C67   1.402       .  A
C66          H74   1.083       .  S
C67          H75   1.081       .  S
C68          H76   1.087       .  S
C68          C69   1.345   1_545  D
C69          H77   1.085       .  S
C70          H78   1.088       .  S
C70          C71   1.350   1_565  D
C71         C280   1.531       .  S
C71          H79   1.085       .  S
C80          C81   1.405   1_455  A
C80          C85   1.408       .  A
C80          C88   1.493   1_455  S
C81          C82   1.401       .  A
C81          H90   1.083       .  S
C82          C83   1.407   1_655  A
C82          H91   1.082       .  S
C83          C84   1.405       .  A
C83          C86   1.491       .  S
C84          C85   1.402       .  A
C84          H92   1.083       .  S
C85          H93   1.081       .  S
C86          H94   1.085       .  S
C86          C87   1.353   1_455  D
C87         C279   1.538       .  S
C87          H95   1.087       .  S
C88          H96   1.087       .  S
C88          C89   1.348   1_655  D
C89          H97   1.085       .  S
C98          C99   1.403       .  A
C98         C103   1.410   1_455  A
C98         C106   1.492       .  S
C99         C100   1.402       .  A
C99         H108   1.083       .  S
C100        C101   1.410   1_455  A
C100        H109   1.081       .  S
C101        C102   1.402       .  A
C101        C104   1.489       .  S
C102        C103   1.398       .  A
C102        H110   1.084       .  S
C103        H111   1.082       .  S
C104        H112   1.087       .  S
C104        C105   1.349   1_655  D
C105        H113   1.085       .  S
C106        H114   1.087       .  S
C106        C107   1.344   1_455  D
C107        H115   1.086       .  S
C116        C117   1.404       .  A
C116        C121   1.407       .  A
C116        C124   1.491       .  S
C117        C118   1.402       .  A
C117        H126   1.083       .  S
C118        C119   1.410       .  A
C118        H127   1.080       .  S
C119        C120   1.404       .  A
C119        C122   1.491       .  S
C120        C121   1.397       .  A
C120        H128   1.083       .  S
C121        H129   1.081       .  S
C122        H130   1.087       .  S
C122        C123   1.351       .  D
C123        C278   1.531       .  S
C123        H131   1.083       .  S
C124        H132   1.087       .  S
C124        C125   1.347       .  D
C125        H133   1.084       .  S
C134        C135   1.404       .  A
C134        C139   1.408       .  A
C134        C142   1.488       .  S
C135        C136   1.399       .  A
C135        H144   1.083       .  S
C136        C137   1.408       .  A
C136        H145   1.081       .  S
C137        C138   1.402       .  A
C137        C140   1.486       .  S
C138        C139   1.396       .  A
C138        H146   1.084       .  S
C139        H147   1.080       .  S
C140        H148   1.087       .  S
C140        C141   1.348       .  D
C141        H149   1.085       .  S
C142        H150   1.087       .  S
C142        C143   1.346       .  D
C143        H151   1.084       .  S
C152        C153   1.403       .  A
C152        C157   1.409       .  A
C152        C160   1.492       .  S
C153        C154   1.398       .  A
C153        H162   1.084       .  S
C154        C155   1.410       .  A
C154        H163   1.080       .  S
C155        C156   1.406       .  A
C155        C417   1.496       .  S
C156        C157   1.403       .  A
C156        H164   1.083       .  S
C157        H165   1.081       .  S
C158        C414   1.497       .  S
C158        H166   1.085   1_554  S
C158        C159   1.350       .  D
C159        H426   1.083       .  S
C160        H168   1.087       .  S
C160        C420   1.350       .  D
C161        H169   1.087   1_554  S
C161        C419   1.349       .  D
H167        C418   1.083       .  S
C170        C171   1.405       .  A
C170        C434   1.410       .  A
C170        C178   1.493       .  S
C171        C172   1.398       .  A
C171        H180   1.083       .  S
C172        C432   1.407       .  A
C172        H181   1.082       .  S
C173        C174   1.404   1_556  A
C173        C431   1.407       .  A
C173        C176   1.493       .  S
C174        C175   1.403       .  A
C174        H182   1.083       .  S
C175        C429   1.409   1_554  A
C175        H183   1.081       .  S
C176        H184   1.086   1_556  S
C176        C177   1.349       .  D
C177        H444   1.086       .  S
C178        H186   1.087       .  S
C178        C438   1.352       .  D
C179        H187   1.084       .  S
C179        C437   1.352   1_554  D
H185        C436   1.086       .  S
C188        C189   1.404   1_556  A
C188        C452   1.407       .  A
C188        C196   1.489   1_556  S
C189        C190   1.401       .  A
C189        H198   1.083       .  S
C190        C450   1.407   1_554  A
C190        H199   1.082       .  S
C191        C192   1.402       .  A
C191        C449   1.407       .  A
C191        C194   1.484       .  S
C192        C193   1.399       .  A
C192        H200   1.083       .  S
C193        C447   1.407       .  A
C193        H201   1.083       .  S
C194        H202   1.087       .  S
C194        C454   1.347       .  D
C195        H203   1.087   1_556  S
C195        C453   1.348       .  D
C196        H204   1.086       .  S
C196        C197   1.348   1_554  D
C197        H464   1.086       .  S
H205        C456   1.086       .  S
C206        C207   1.403       .  A
C206        C211   1.408       .  A
C206        C214   1.493       .  S
C207        C208   1.403       .  A
C207        H216   1.083       .  S
C208        C209   1.411       .  A
C208        H217   1.079       .  S
C209        C210   1.404   1_554  A
C209        C212   1.495       .  S
C210        C211   1.398   1_556  A
C210        H218   1.083       .  S
C211        H219   1.082   1_554  S
C212        H220   1.087   1_554  S
C212        C213   1.350       .  D
C213        H221   1.082       .  S
C214        H222   1.086       .  S
C214        C215   1.347   1_554  D
C215        H482   1.085       .  S
H223        C474   1.085       .  S
C224        C225   1.402       .  A
C224        C229   1.407   1_554  A
C224        C232   1.483       .  S
C225        C226   1.396       .  A
C225        H493   1.084       .  S
C226        C227   1.406   1_554  A
C226        H494   1.082       .  S
C227        C228   1.404       .  A
C227        C230   1.484       .  S
C228        C229   1.401       .  A
C228        H236   1.083       .  S
C229        H237   1.082       .  S
C230        H238   1.086       .  S
C230        C231   1.347   1_556  D
C231        C260   1.484       .  S
C231        H498   1.087       .  S
C232        H499   1.087       .  S
C232        C233   1.348   1_554  D
C233        H241   1.086       .  S
H234        C484   1.083       .  S
H235        C485   1.082       .  S
H239        C490   1.086       .  S
H240        C491   1.087       .  S
C242        C243   1.405       .  A
C242        C506   1.410   1_554  A
C242        C250   1.496       .  S
C243        C244   1.401       .  A
C243        H252   1.084       .  S
C244        C504   1.410       .  A
C244        H253   1.081       .  S
C245        C246   1.403       .  A
C245        C503   1.408       .  A
C245        C248   1.494       .  S
C246        C247   1.401       .  A
C246        H254   1.083       .  S
C247        C501   1.411       .  A
C247        H255   1.079       .  S
C248        H256   1.085       .  S
C248        C508   1.349       .  D
C249        C264   1.493       .  S
C249        H257   1.084       .  S
C249        C507   1.349       .  D
C250        H258   1.087       .  S
C250        C251   1.351   1_554  D
C251        H518   1.084       .  S
H259        C510   1.083       .  S
C260        C265   1.400       .  A
C261        C262   1.405       .  A
C261        H266   1.083       .  S
C262        C263   1.413       .  A
C262        C474   1.492       .  S
C263        H267   1.080       .  S
C264        C265   1.406       .  A
C265        H268   1.085       .  S
C269        C270   1.404       .  A
C269        C274   1.401       .  A
C269        C456   1.487       .  S
C270        C271   1.405       .  A
C270        H275   1.083       .  S
C271        C272   1.411       .  A
C271        C418   1.487       .  S
C272        C273   1.411       .  A
C272        H276   1.082       .  S
C273        C274   1.405       .  A
C273        C436   1.489       .  S
C274        H277   1.084       .  S
C278        C400   1.526       .  S
C278        C454   1.526       .  S
C278        C492   1.528       .  S
C279        C364   1.532   1_655  S
C279        C420   1.529   1_655  S
C279        C510   1.532       .  S
C280        C312   1.532       .  S
C280        C438   1.534   1_545  S
C280        C472   1.531       .  S
Fe281       O297   2.071   1_545  S
Fe281       O287   2.061       .  S
Fe281       O294   2.068   1_545  S
Fe281       O286   2.059       .  S
Fe281       O292   1.982   1_655  S
Fe282       O285   2.060   1_655  S
Fe282       O289   2.056       .  S
Fe282       O293   2.062       .  S
Fe282       O298   2.054   1_655  S
Fe282       O292   1.972   1_665  S
Fe283       O301   2.079       .  S
Fe283       O288   2.080       .  S
Fe283       O295   2.076       .  S
Fe283       O284   2.087       .  S
Fe283       O292   1.981       .  S
O284        C291   1.276       .  A
O285        C299   1.271       .  A
O286        C291   1.269   1_655  A
O287        C290   1.267   1_655  A
O288        C300   1.268       .  A
O289        C302   1.265       .  A
C290        C348   1.481       .  S
C290        O295   1.268       .  A
C291        C366   1.476   1_455  S
O293        C296   1.270       .  A
O294        C296   1.269       .  A
C296        C402   1.477       .  S
O297        C302   1.268       .  A
O298        C300   1.263   1_565  A
C299        C328   1.473       .  S
C299        O301   1.275   1_565  A
C300        C310   1.481       .  S
C302        C384   1.477       .  S
C303        C304   1.402   1_545  A
C303        C308   1.407       .  A
C303        C311   1.487       .  S
C304        C305   1.401       .  A
C304        H313   1.083       .  S
C305        C306   1.408   1_565  A
C305        H314   1.083       .  S
C306        C307   1.403       .  A
C306        C309   1.488       .  S
C307        C308   1.401       .  A
C307        H315   1.083       .  S
C308        H316   1.083       .  S
C309        H317   1.086       .  S
C309        C310   1.346       .  D
C310        H318   1.087   1_545  S
C311        H319   1.086   1_545  S
C311        C312   1.346       .  D
C312        H320   1.088       .  S
C321        C322   1.402       .  A
C321        C326   1.410   1_565  A
C321        C329   1.487       .  S
C322        C323   1.394       .  A
C322        H331   1.084       .  S
C323        C324   1.407   1_565  A
C323        H332   1.082       .  S
C324        C325   1.403       .  A
C324        C327   1.487       .  S
C325        C326   1.402       .  A
C325        H333   1.083       .  S
C326        H334   1.081       .  S
C327        H335   1.087       .  S
C327        C328   1.344   1_545  D
C328        H336   1.086       .  S
C329        H337   1.088       .  S
C329        C330   1.349   1_565  D
C330        H338   1.084       .  S
C339        C340   1.403   1_455  A
C339        C344   1.407       .  A
C339        C347   1.487   1_455  S
C340        C341   1.398       .  A
C340        H349   1.083       .  S
C341        C342   1.408   1_655  A
C341        H350   1.082       .  S
C342        C343   1.405       .  A
C342        C345   1.489       .  S
C343        C344   1.402       .  A
C343        H351   1.083       .  S
C344        H352   1.082       .  S
C345        H353   1.085       .  S
C345        C346   1.352       .  D
C346        H354   1.087   1_455  S
C347        H355   1.087       .  S
C347        C348   1.347   1_655  D
C348        H356   1.086       .  S
C357        C358   1.403       .  A
C357        C362   1.410   1_455  A
C357        C365   1.490       .  S
C358        C359   1.401       .  A
C358        H367   1.083       .  S
C359        C360   1.409   1_455  A
C359        H368   1.082       .  S
C360        C361   1.401       .  A
C360        C363   1.486       .  S
C361        C362   1.398       .  A
C361        H369   1.083       .  S
C362        H370   1.082       .  S
C363        H371   1.087       .  S
C363        C364   1.347   1_655  D
C364        H372   1.086       .  S
C365        H373   1.087       .  S
C365        C366   1.343   1_455  D
C366        H374   1.086       .  S
C375        C376   1.403       .  A
C375        C380   1.407       .  A
C375        C383   1.489       .  S
C376        C377   1.400       .  A
C376        H385   1.083       .  S
C377        C378   1.410       .  A
C377        H386   1.079       .  S
C378        C379   1.404       .  A
C378        C381   1.491       .  S
C379        C380   1.397       .  A
C379        H387   1.084       .  S
C380        H388   1.081       .  S
C381        H389   1.087       .  S
C381        C382   1.350       .  D
C382        H390   1.082       .  S
C383        H391   1.087       .  S
C383        C384   1.346       .  D
C384        H392   1.085       .  S
C393        C394   1.403       .  A
C393        C398   1.409       .  A
C393        C401   1.488       .  S
C394        C395   1.395       .  A
C394        H403   1.083       .  S
C395        C396   1.406       .  A
C395        H404   1.081       .  S
C396        C397   1.403       .  A
C396        C399   1.485       .  S
C397        C398   1.399       .  A
C397        H405   1.083       .  S
C398        H406   1.080       .  S
C399        H407   1.087       .  S
C399        C400   1.349       .  D
C400        H408   1.085       .  S
C401        H409   1.087       .  S
C401        C402   1.346       .  D
C402        H410   1.083       .  S
C411        C412   1.402       .  A
C411        C416   1.406   1_554  A
C411        C419   1.487       .  S
C412        C413   1.400       .  A
C412        H421   1.084       .  S
C413        C414   1.411       .  A
C413        H422   1.080       .  S
C414        C415   1.407   1_554  A
C415        C416   1.402       .  A
C415        H423   1.083       .  S
C416        H424   1.082       .  S
C417        H425   1.086       .  S
C417        C418   1.349       .  D
C419        H427   1.087       .  S
C420        H428   1.085       .  S
C429        C430   1.405       .  A
C429        C437   1.493       .  S
C430        C431   1.400       .  A
C430        H439   1.083       .  S
C431        H440   1.082       .  S
C432        C433   1.405       .  A
C432        C435   1.493       .  S
C433        C434   1.404       .  A
C433        H441   1.083       .  S
C434        H442   1.080       .  S
C435        H443   1.086       .  S
C435        C436   1.349       .  D
C437        H445   1.087       .  S
C438        H446   1.083       .  S
C447        C448   1.403       .  A
C447        C455   1.486       .  S
C448        C449   1.400       .  A
C448        H457   1.083       .  S
C449        H458   1.083       .  S
C450        C451   1.403       .  A
C450        C453   1.486       .  S
C451        C452   1.399       .  A
C451        H459   1.083       .  S
C452        H460   1.082       .  S
C453        H461   1.087       .  S
C454        H462   1.087       .  S
C455        H463   1.086       .  S
C455        C456   1.347       .  D
C465        C466   1.406       .  A
C465        C470   1.409       .  A
C465        C473   1.496       .  S
C466        C467   1.404       .  A
C466        H475   1.083       .  S
C467        C468   1.408       .  A
C467        H476   1.082       .  S
C468        C469   1.402       .  A
C468        C471   1.490       .  S
C469        C470   1.399       .  A
C469        H477   1.084       .  S
C470        H478   1.081       .  S
C471        H479   1.087       .  S
C471        C472   1.348       .  D
C472        H480   1.086       .  S
C473        H481   1.085       .  S
C473        C474   1.349       .  D
C483        C484   1.404       .  A
C483        C488   1.405       .  A
C483        C491   1.485       .  S
C484        C485   1.401       .  A
C485        C486   1.407       .  A
C486        C487   1.404       .  A
C486        C489   1.486       .  S
C487        C488   1.399       .  A
C487        H495   1.083       .  S
C488        H496   1.082       .  S
C489        H497   1.086       .  S
C489        C490   1.348       .  D
C491        C492   1.350       .  D
C492        H500   1.087       .  S
C501        C502   1.406       .  A
C501        C509   1.498       .  S
C502        C503   1.402       .  A
C502        H511   1.083       .  S
C503        H512   1.082       .  S
C504        C505   1.404   1_554  A
C504        C507   1.497       .  S
C505        C506   1.402       .  A
C505        H513   1.083       .  S
C506        H514   1.080       .  S
C507        H515   1.085   1_554  S
C508        H516   1.085       .  S
C509        H517   1.087       .  S
C509        C510   1.352       .  D
