geometry optimzed in LAMMPS
_audit_creation_date              2020-11-30 
_audit_creation_method            'lammps2cif' 
_symmetry_space_group_name_H-M    'P1' 
_symmetry_Int_Tables_number       1 
_symmetry_cell_setting            triclinic 
loop_ 
_symmetry_equiv_pos_as_xyz 
  x,y,z 
_cell_length_a                    46.18716891 
_cell_length_b                    45.483425840496785 
_cell_length_c                    33.503926563614606 
_cell_angle_alpha                 90.01393751721568 
_cell_angle_beta                  89.83512514503367 
_cell_angle_gamma                 120.33384961266114 
loop_ 
_atom_site_label 
_atom_site_type_symbol 
_atom_site_fract_x 
_atom_site_fract_y 
_atom_site_fract_z 
_atom_site_charge 
C1          C  0.33589599  0.67329836  0.21143471     0.46500
H2          H  0.33565445  0.67389804  0.17842105    -0.02500
C3          C  0.33660422  0.67066344  0.28854518     0.46500
H4          H  0.33738090  0.67052170  0.32147480    -0.02500
C5          C  0.35454404  0.65508998  0.22714156    -0.16200
C6          C  0.35348952  0.70918802  0.23093995    -0.16000
C7          C  0.30013892  0.65447069  0.23005990    -0.16400
C8          C  0.35297099  0.65180117  0.26827265    -0.16400
C9          C  0.35542057  0.70784207  0.27209865    -0.15900
C10         C  0.30046880  0.65334954  0.27146312    -0.16200
C11         C  0.17692667  0.39090567  0.76547810     0.03300
C12         C  0.17042199  0.38681119  0.72405469     0.03300
C13         C  0.19248113  0.38335272  0.69873019    -0.17200
C14         C  0.22356750  0.38977184  0.71267914     0.03300
C15         C  0.23017876  0.39362872  0.75415292     0.03300
C16         C  0.20544360  0.39136628  0.78024822    -0.17200
H17         H  0.20928342  0.39162808  0.81212571     0.05300
H18         H  0.18687047  0.37914168  0.66721101     0.05300
C19         C  0.16261795  0.77816481  0.73552145     0.03300
C20         C  0.16777897  0.77529052  0.77658661     0.03300
C21         C  0.19691160  0.80077685  0.79497666    -0.17200
C22         C  0.22142859  0.82846378  0.77312095     0.03300
C23         C  0.21662090  0.83080258  0.73184723     0.03300
C24         C  0.18640214  0.80676233  0.71417755    -0.17200
H25         H  0.18263267  0.80868029  0.68258996     0.05300
H26         H  0.20154055  0.79782977  0.82602830     0.05300
C27         C  0.77898716  0.60224545  0.25187672     0.03300
C28         C  0.78159795  0.60858887  0.21029813     0.03300
C29         C  0.81019763  0.61351790  0.18981216    -0.17200
C30         C  0.83421136  0.60838724  0.20903777     0.03300
C31         C  0.83056511  0.60045659  0.25012399     0.03300
C32         C  0.80350056  0.59826214  0.27122041    -0.03200
H33         H  0.80032115  0.59105213  0.30247496     0.05300
H34         H  0.81257564  0.61883183  0.15808549     0.05300
O35         O  0.05480858  0.47163165  0.94888535    -0.77500
C36         C  0.04241423  0.55998721  0.93697059     0.83600
O37         O  0.05839277  0.51536761  0.08210065    -0.78600
O38         O  0.96420303  0.52410633  0.02700084    -0.80100
O39         O  0.93398591  0.42304191  0.95451206    -0.79900
O40         O  0.00571594  0.42273058  0.95323728    -0.78500
Zn41       Zn  0.05032352  0.50604003  0.98208039     1.55700
O42         O  0.93828500  0.47342315  0.94636408    -0.79900
Cd43       Cd  0.97704651  0.43521290  0.98785541     1.59700
Cd44       Cd  0.00880659  0.48903657  0.06230849     1.59600
O45         O  0.96410989  0.40516921  0.03818816    -0.79900
O46         O  0.00476648  0.48433912  0.00294485    -1.90400
Cd47       Cd  0.97997791  0.50599013  0.98081950     1.59900
O48         O  0.98580495  0.44139286  0.08868151    -0.79800
O49         O  0.01178569  0.54746725  0.94673407    -0.78500
C50         C  0.08621644  0.52723149  0.06345490     0.84000
C51         C  0.03564248  0.44024161  0.94041447     0.83700
O52         O  0.05952059  0.54654027  0.94804954    -0.77400
C53         C  0.92297036  0.44139282  0.93986650     0.84500
O54         O  0.08640255  0.52451786  0.02560405    -0.77500
C55         C  0.96961047  0.41105364  0.07544967     0.84600
C56         C  0.96894773  0.52656036  0.06459881     0.85000
O57         O  0.98572347  0.51508609  0.08190302    -0.80000
O58         O  0.04891621  0.56664457  0.55537895    -0.77500
C59         C  0.04407196  0.46964174  0.56340938     0.83600
O60         O  0.05783684  0.53331729  0.41897879    -0.78600
O61         O  0.97028956  0.42228032  0.47233711    -0.80100
O62         O  0.92874876  0.48368019  0.54384632    -0.79900
O63         O  0.99807757  0.56121323  0.55152523    -0.78500
Zn64       Zn  0.04867587  0.53080641  0.51925332     1.55700
O65         O  0.93645440  0.43965455  0.54990275    -0.79900
Cd66       Cd  0.97271862  0.51999379  0.51411177     1.59700
Cd67       Cd  0.00832870  0.50306588  0.43839684     1.59600
O68         O  0.95929310  0.53627604  0.46397949    -0.79900
O69         O  0.00347503  0.50301989  0.49784808    -1.90400
Cd70       Cd  0.98103694  0.45544538  0.51855451     1.59900
O71         O  0.98085253  0.52238500  0.41276306    -0.79800
O72         O  0.01355064  0.44978610  0.55424812    -0.78500
C73         C  0.08505611  0.55253786  0.43760348     0.84000
C74         C  0.02795786  0.57597838  0.56480617     0.83700
O75         O  0.06052793  0.50055668  0.55162017    -0.77400
C76         C  0.91893512  0.45356668  0.55653279     0.84500
O77         O  0.08509009  0.55465922  0.47562910    -0.77500
C78         C  0.96387732  0.53512012  0.42658227     0.84600
C79         C  0.97604109  0.42505389  0.43504803     0.85000
O80         O  0.99058223  0.45396126  0.41758507    -0.80000
C81         C  0.83481825  0.20731112  0.29098439     0.03300
C82         C  0.83356643  0.20875532  0.24885566     0.03300
C83         C  0.80768694  0.18167317  0.22792730    -0.17200
C84         C  0.78122265  0.15460398  0.24833675     0.03300
C85         C  0.78291078  0.15259458  0.29027888     0.03300
C86         C  0.81083954  0.17787327  0.31074821    -0.17200
H87         H  0.81213083  0.17602110  0.34283238     0.05300
H88         H  0.80619741  0.18362162  0.19580219     0.05300
C89         C  0.36643818  0.15720314  0.26781497     0.03300
C90         C  0.36400358  0.15341416  0.22581274     0.03300
C91         C  0.35892677  0.17614485  0.20290798    -0.17200
C92         C  0.35962472  0.20454063  0.22025650     0.03300
C93         C  0.36215797  0.20839827  0.26235399     0.03300
C94         C  0.36400538  0.18376744  0.28553634    -0.17200
H95         H  0.36772300  0.18763819  0.31749406     0.05300
H96         H  0.35873348  0.17417995  0.17062098     0.05300
C97         C  0.60141388  0.83008415  0.73331548     0.03300
C98         C  0.60784590  0.82805097  0.77428245     0.03300
C99         C  0.61499837  0.80290778  0.78639865    -0.17200
C100        C  0.61079742  0.77703410  0.76008339     0.03300
C101        C  0.60382366  0.77920405  0.71943809     0.03300
C102        C  0.60233855  0.80739806  0.70615438    -0.17200
H103        H  0.59949669  0.81046009  0.67460854     0.05300
H104        H  0.62147932  0.80189611  0.81707321     0.05300
O105        O  0.49613566  0.94877915  0.56438477    -0.77500
C106        C  0.41968552  0.97612867  0.56908418     0.83600
O107        O  0.46437126  0.94889400  0.42742477    -0.78600
O108        O  0.46449745  0.05130589  0.47285391    -0.80100
O109        O  0.55720592  0.07424092  0.55594701    -0.79900
O110        O  0.54606480  0.99632416  0.56733861    -0.78500
Zn111      Zn  0.46784665  0.95821329  0.52726692     1.55700
O112        O  0.51102653  0.07773179  0.55714730    -0.79900
Cd113      Cd  0.54149132  0.02770352  0.52725530     1.59700
Cd114      Cd  0.49418377  0.99907478  0.44705702     1.59600
O115        O  0.57371007  0.03519679  0.48116011    -0.79900
O116        O  0.49464052  0.00431506  0.50649243    -1.90400
Cd117      Cd  0.47715313  0.03477020  0.52348424     1.59900
O118        O  0.54223998  0.01501578  0.42672225    -0.79800
O119        O  0.43443767  0.00703433  0.55753559    -0.78500
C120        C  0.44879784  0.92077336  0.44631302     0.84000
C121        C  0.52587823  0.96579925  0.57798746     0.83700
O122        O  0.43006722  0.95587989  0.55948038    -0.77400
C123        C  0.54186107  0.08980112  0.56611384     0.84500
O124        O  0.44851503  0.92030463  0.48443718    -0.77500
C125        C  0.57064644  0.02835549  0.44408687     0.84600
C126        C  0.46528715  0.04652243  0.43541209     0.85000
O127        O  0.47601145  0.02773283  0.42138390    -0.80000
O128        O  0.44175131  0.49332094  0.53953411    -0.77500
C129        C  0.54292554  0.57648173  0.55062017     0.83600
O130        O  0.47702971  0.52696296  0.40621226    -0.78600
O131        O  0.58151511  0.53637010  0.45971067    -0.80100
O132        O  0.51072895  0.44101752  0.54467059    -0.79900
O133        O  0.43920608  0.44296989  0.54069776    -0.78500
Zn134      Zn  0.48078556  0.52439247  0.50635497     1.55700
O135        O  0.55924724  0.48964670  0.54477433    -0.79900
Cd136      Cd  0.48057695  0.45222130  0.50836752     1.59700
Cd137      Cd  0.50028532  0.50078152  0.42825338     1.59600
O138        O  0.46368991  0.41905846  0.46125582    -0.79900
O139        O  0.50264291  0.49999762  0.48788984    -1.90400
Cd140      Cd  0.54972237  0.52122050  0.50798513     1.59900
O141        O  0.47445436  0.45127199  0.40679945    -0.79800
O142        O  0.56089227  0.56381198  0.54054976    -0.78500
C143        C  0.46357621  0.54173800  0.42434474     0.84000
C144        C  0.42796534  0.46238565  0.55038404     0.83700
O145        O  0.51241966  0.56355980  0.54021916    -0.77400
C146        C  0.54114677  0.45870263  0.55598421     0.84500
O147        O  0.46308561  0.54241469  0.46237189    -0.77500
C148        C  0.46248817  0.42226030  0.42369320     0.84600
C149        C  0.57731295  0.53627160  0.42210181     0.85000
O150        O  0.54846883  0.52409811  0.40627045    -0.80000
O151        O  0.44656680  0.95013555  0.94568827    -0.77500
C152        C  0.54896551  0.97365864  0.93766209     0.83600
O153        O  0.47881120  0.95570198  0.08088406    -0.78600
O154        O  0.58565327  0.05156464  0.03098272    -0.80100
O155        O  0.51531393  0.07407628  0.93929284    -0.79900
O156        O  0.44300753  0.99683501  0.93976467    -0.78500
Zn157      Zn  0.48547657  0.96098178  0.98061742     1.55700
O158        O  0.56507704  0.07787378  0.94518509    -0.79900
Cd159      Cd  0.48342883  0.03126814  0.97401774     1.59700
Cd160      Cd  0.50242737  0.00558996  0.05754894     1.59600
O161        O  0.46476560  0.04759448  0.01937270    -0.79900
O162        O  0.50647915  0.00803471  0.99802286    -1.90400
Cd163      Cd  0.55485703  0.03558430  0.98096225     1.59900
O164        O  0.47615281  0.02893119  0.07549453    -0.79800
O165        O  0.56665777  0.00485429  0.94758594    -0.78500
C166        C  0.46662163  0.92696116  0.06334353     0.84000
C167        C  0.43195694  0.96540432  0.93239005     0.83700
O168        O  0.51846804  0.95518774  0.94837442    -0.77400
C169        C  0.54663389  0.08895922  0.93128643     0.84500
O170        O  0.46748922  0.92531574  0.02541122    -0.77500
C171        C  0.46369500  0.04457250  0.05720758     0.84600
C172        C  0.57960860  0.04769186  0.06844900     0.85000
O173        O  0.54973719  0.03188161  0.08195567    -0.80000
O174        O  0.50992601  0.56508372  0.94607395    -0.77500
C175        C  0.42685184  0.46239578  0.92903886     0.83600
O176        O  0.46381302  0.52329157  0.07785926    -0.78600
O177        O  0.45529428  0.41860547  0.02680286    -0.80100
O178        O  0.55875615  0.49170833  0.95439641    -0.79900
O179        O  0.55776427  0.56443467  0.94859984    -0.78500
Zn180      Zn  0.47570945  0.52468878  0.97799621     1.55700
O181        O  0.51000121  0.44347248  0.94848731    -0.79900
Cd182      Cd  0.54525024  0.52316817  0.98509535     1.59700
Cd183      Cd  0.49167167  0.50078403  0.06028532     1.59600
O184        O  0.57366302  0.54179997  0.03564002    -0.79900
O185        O  0.49681477  0.50062611  0.00065472    -1.90400
Cd186      Cd  0.47628042  0.45287685  0.97998438     1.59900
O187        O  0.53866995  0.52836235  0.08718219    -0.79800
O188        O  0.43849098  0.44381633  0.94079368    -0.78500
C189        C  0.45196693  0.53881574  0.05817659     0.84000
C190        C  0.54074389  0.57772104  0.93682049     0.83700
O191        O  0.43862926  0.49301500  0.94078140    -0.77400
C192        C  0.54134788  0.46137367  0.94116079     0.84500
O193        O  0.45542243  0.54191192  0.02030384    -0.77500
C194        C  0.56835302  0.54279351  0.07286312     0.84600
C195        C  0.45347258  0.42178500  0.06445739     0.85000
O196        O  0.46629076  0.45095280  0.08101400    -0.80000
C197        C  0.67642334  0.34770402  0.71231810     0.46500
H198        H  0.67878450  0.34912586  0.67956103    -0.02500
C199        C  0.67315268  0.34451596  0.78953139     0.46500
H200        H  0.67064624  0.34186566  0.82222682    -0.02500
C201        C  0.66067120  0.36797874  0.73021186    -0.16200
C202        C  0.65453907  0.31070318  0.72789169    -0.16000
C203        C  0.71126771  0.36199442  0.73271494    -0.16400
C204        C  0.65961079  0.36683354  0.77155398    -0.16400
C205        C  0.65289310  0.30930176  0.76911025    -0.15900
C206        C  0.70971322  0.35987088  0.77409548    -0.16200
C207        C  0.63431466  0.42789467  0.82055550    -0.10900
C208        C  0.60876222  0.40571179  0.84638557     0.11700
C209        C  0.59979657  0.37100626  0.84740741    -0.02700
C210        C  0.61796938  0.36008696  0.82366524    -0.05400
C211        C  0.64386289  0.38228168  0.79761533    -0.16200
C212        C  0.65242729  0.41724363  0.79662471     0.02700
C213        C  0.59175607  0.41980906  0.87155412     0.12700
C214        C  0.57039388  0.34546991  0.87251927     0.63300
H215        H  0.61130151  0.33361638  0.82442501     0.12700
C216        C  0.68085106  0.44529063  0.77274864     0.55400
H217        H  0.64067490  0.45434383  0.81963953     0.08500
C218        C  0.60535843  0.43664031  0.90827845    -0.05300
C219        C  0.58797432  0.44945472  0.93033717    -0.06000
C220        C  0.55801911  0.44673581  0.91641121    -0.15600
C221        C  0.54560931  0.43172343  0.87843736    -0.01200
C222        C  0.56253484  0.41814190  0.85694046    -0.08800
C223        C  0.63850124  0.44168391  0.92358324     0.65500
H224        H  0.59777611  0.46192323  0.95870386     0.11000
C225        C  0.51565921  0.43161081  0.85965266     0.63900
H226        H  0.55327135  0.40633869  0.82812773     0.08300
F227        F  0.70193224  0.47132298  0.79819117    -0.19100
F228        F  0.66790803  0.45809679  0.74506419    -0.15400
F229        F  0.69988167  0.43466587  0.75302255    -0.18900
F230        F  0.54125472  0.34369647  0.85917121    -0.22200
F231        F  0.57527819  0.35536281  0.91208814    -0.23700
F232        F  0.56622119  0.31315828  0.87024154    -0.17700
F233        F  0.51079525  0.42028567  0.82054053    -0.20200
F234        F  0.52072345  0.46431022  0.85957758    -0.21300
F235        F  0.48684555  0.41037977  0.88094364    -0.18500
F236        F  0.64666773  0.45745669  0.96051121    -0.18600
F237        F  0.66394086  0.46186338  0.89716811    -0.22400
F238        F  0.63684282  0.41060673  0.92727861    -0.24100
C239        C  0.58693406  0.22196665  0.81168503    -0.10900
C240        C  0.60657089  0.21460449  0.83707483     0.11700
C241        C  0.64125669  0.23887606  0.84076121    -0.02700
C242        C  0.65508587  0.26938607  0.81832627    -0.05400
C243        C  0.63532648  0.27696297  0.79330259    -0.16200
C244        C  0.60024470  0.25344147  0.79153693     0.02700
C245        C  0.58990517  0.18204062  0.86078414     0.12700
C246        C  0.66350357  0.23266499  0.86860040     0.63300
H247        H  0.68171621  0.28760749  0.81990698     0.12700
C248        C  0.57545450  0.26089883  0.77105338     0.55400
H249        H  0.56041167  0.20348193  0.80908175     0.08500
C250        C  0.57055183  0.17807028  0.89550838    -0.05300
C251        C  0.55685192  0.14730939  0.91742094    -0.06000
C252        C  0.56191901  0.12048799  0.90601620    -0.15600
C253        C  0.58039055  0.12405531  0.87056472    -0.01200
C254        C  0.59388225  0.15474575  0.84845910    -0.08800
C255        C  0.56427493  0.20619348  0.90933580     0.65500
H256        H  0.54214118  0.14401404  0.94403896     0.11000
C257        C  0.58508867  0.09525066  0.85553305     0.63900
H258        H  0.60806178  0.15788462  0.82140822     0.08300
F259        F  0.54831627  0.25199683  0.79601119    -0.19100
F260        F  0.56411207  0.24193476  0.73645643    -0.15400
F261        F  0.58910828  0.29493719  0.76206609    -0.18900
F262        F  0.66499000  0.20451450  0.85604826    -0.22200
F263        F  0.65066702  0.22704210  0.90697112    -0.23700
F264        F  0.69591238  0.26019613  0.86960688    -0.17700
F265        F  0.60054866  0.10248806  0.81847344    -0.20200
F266        F  0.55421633  0.06577158  0.85208535    -0.21300
F267        F  0.60483370  0.08974771  0.88190383    -0.18500
F268        F  0.54783980  0.19862214  0.94578092    -0.18600
F269        F  0.54458804  0.21059080  0.88174506    -0.22400
F270        F  0.59435935  0.23643485  0.91340246    -0.24100
C271        C  0.63929562  0.41418843  0.64813883    -0.10900
C272        C  0.60675170  0.40587827  0.65924369     0.11700
C273        C  0.59178403  0.38474167  0.69294998    -0.02700
C274        C  0.61048258  0.37367124  0.71510497    -0.05400
C275        C  0.64367066  0.38269671  0.70498820    -0.16200
C276        C  0.65837962  0.40371575  0.67058846     0.02700
C277        C  0.58896872  0.41934180  0.63439149     0.12700
C278        C  0.55585500  0.37318737  0.70494025     0.63300
H279        H  0.59856697  0.35653539  0.73993755     0.12700
C280        C  0.69383951  0.41601551  0.65605513     0.55400
H281        H  0.65007238  0.42957117  0.62157668     0.08500
C282        C  0.59525131  0.45309254  0.63844558    -0.05300
C283        C  0.57890717  0.46463397  0.61258500    -0.06000
C284        C  0.55605198  0.44351363  0.58322598    -0.15600
C285        C  0.54921165  0.40933955  0.57994771    -0.01200
C286        C  0.56626079  0.39816640  0.60520999    -0.08800
C287        C  0.61942879  0.47694441  0.66977878     0.65500
H288        H  0.58395637  0.49053785  0.61513272     0.11000
C289        C  0.52471132  0.38480587  0.54938767     0.63900
H290        H  0.56202426  0.37256986  0.60240885     0.08300
F291        F  0.70782795  0.44850602  0.64017843    -0.19100
F292        F  0.69327892  0.39438715  0.62670101    -0.15400
F293        F  0.71451748  0.41769678  0.68637377    -0.18900
F294        F  0.53431012  0.35344565  0.67493277    -0.22200
F295        F  0.55212356  0.40110856  0.71135559    -0.23700
F296        F  0.54655455  0.35394174  0.73960870    -0.17700
F297        F  0.52448239  0.35424992  0.54862254    -0.20200
F298        F  0.53348886  0.39908710  0.51170356    -0.21300
F299        F  0.49258347  0.37762885  0.55860375    -0.18500
F300        F  0.61974601  0.50752571  0.67121593    -0.18600
F301        F  0.65156849  0.48391805  0.66114612    -0.22400
F302        F  0.61026732  0.46205025  0.70712128    -0.24100
C303        C  0.60270601  0.24114046  0.64922648    -0.10900
C304        C  0.60994774  0.21573194  0.65957813     0.11700
C305        C  0.63399617  0.22268427  0.68972833    -0.02700
C306        C  0.64840841  0.25421252  0.71012147    -0.05400
C307        C  0.63993596  0.27929414  0.70137267    -0.16200
C308        C  0.61721204  0.27286371  0.66914988     0.02700
C309        C  0.59249735  0.18263672  0.63706073     0.12700
C310        C  0.64479207  0.19709748  0.69979408     0.63300
H311        H  0.66670571  0.25961539  0.73329566     0.12700
C312        C  0.60697226  0.29821656  0.65573867     0.55400
H313        H  0.58517861  0.23562194  0.62505777     0.08500
C314        C  0.55970584  0.15610898  0.64714471    -0.05300
C315        C  0.54419015  0.12630932  0.62338274    -0.06000
C316        C  0.56006328  0.12230259  0.58959524    -0.15600
C317        C  0.59243826  0.14946922  0.57877661    -0.01200
C318        C  0.60809365  0.17901952  0.60289590    -0.08800
C319        C  0.54091855  0.15961436  0.68242724     0.65500
H320        H  0.51933128  0.10575454  0.63105129     0.11000
C321        C  0.60980495  0.14809988  0.54084943     0.63900
H322        H  0.63268537  0.19993895  0.59497001     0.08300
F323        F  0.58106985  0.28421466  0.62831524    -0.19100
F324        F  0.63360615  0.32593624  0.63765723    -0.15400
F325        F  0.59593743  0.30867272  0.68786936    -0.18900
F326        F  0.65984183  0.19213221  0.66679013    -0.22200
F327        F  0.61730611  0.16631617  0.71076079    -0.23700
F328        F  0.66751347  0.20814619  0.73095438    -0.17700
F329        F  0.58839749  0.14033729  0.50871308    -0.20200
F330        F  0.61894003  0.12359753  0.54444983    -0.21300
F331        F  0.63852940  0.17894343  0.53290985    -0.18500
F332        F  0.50993499  0.13058052  0.68801584    -0.18600
F333        F  0.53573275  0.18662205  0.67603764    -0.22400
F334        F  0.55922793  0.16540537  0.71704113    -0.24100
C335        C  0.56326460  0.70745752  0.64402703    -0.10900
C336        C  0.58740868  0.69762326  0.64207363     0.11700
C337        C  0.61815965  0.71635146  0.66246469    -0.02700
C338        C  0.62314694  0.74405208  0.68585005    -0.05400
C339        C  0.59786265  0.75227758  0.69046681    -0.16200
C340        C  0.56710118  0.73360972  0.66937890     0.02700
C341        C  0.57824215  0.66592395  0.62062331     0.12700
C342        C  0.64510143  0.70663751  0.66023609     0.63300
H343        H  0.64646560  0.75891947  0.70187957     0.12700
C344        C  0.53733332  0.73897524  0.67540601     0.55400
H345        H  0.54036770  0.69294173  0.62709272     0.08500
C346        C  0.55453999  0.63381177  0.63678989    -0.05300
C347        C  0.54410909  0.60482764  0.61310594    -0.06000
C348        C  0.55762415  0.60722918  0.57500864    -0.15600
C349        C  0.58266792  0.63901447  0.55978161    -0.01200
C350        C  0.59199141  0.66824195  0.58266201    -0.08800
C351        C  0.54035712  0.63021388  0.67872485     0.65500
H352        H  0.52500030  0.58003799  0.62391350     0.11000
C353        C  0.59880976  0.64195050  0.51932983     0.63900
H354        H  0.60975612  0.69318940  0.57095328     0.08300
F355        F  0.50848178  0.71335218  0.65778471    -0.19100
F356        F  0.54372815  0.76943444  0.65872236    -0.15400
F357        F  0.53062930  0.73882281  0.71558411    -0.18900
F358        F  0.65710966  0.71067434  0.62160845    -0.22200
F359        F  0.63197006  0.67305802  0.67172536    -0.23700
F360        F  0.67191134  0.72670554  0.68495792    -0.17700
F361        F  0.57447747  0.62878179  0.49000088    -0.20200
F362        F  0.61564556  0.62400340  0.51980642    -0.21300
F363        F  0.62170378  0.67544658  0.50960930    -0.18500
F364        F  0.52084162  0.59640927  0.68993743    -0.18600
F365        F  0.52050896  0.64488902  0.68078275    -0.22400
F366        F  0.56629128  0.64605341  0.70581469    -0.24100
C367        C  0.54994791  0.87053078  0.70405955    -0.10900
C368        C  0.57267887  0.89649315  0.67891691     0.11700
C369        C  0.60581435  0.90284725  0.67476710    -0.02700
C370        C  0.61458215  0.88137893  0.69478136    -0.05400
C371        C  0.59100531  0.85365936  0.71760136    -0.16200
C372        C  0.55783373  0.84762728  0.72175046     0.02700
C373        C  0.55969848  0.91369885  0.65362184     0.12700
C374        C  0.63133037  0.93152614  0.64851534     0.63300
H375        H  0.63965581  0.88530897  0.69176773     0.12700
C376        C  0.52904280  0.81654452  0.74148212     0.55400
H377        H  0.52470328  0.86627255  0.70693955     0.08500
C378        C  0.54114053  0.89795181  0.61866061    -0.05300
C379        C  0.53035378  0.91597453  0.59511767    -0.06000
C380        C  0.53758127  0.94884124  0.60545263    -0.15600
C381        C  0.55530522  0.96420427  0.64109005    -0.01200
C382        C  0.56596325  0.94603501  0.66486306    -0.08800
C383        C  0.53288196  0.86237740  0.60612837     0.65500
H384        H  0.51648620  0.90467338  0.56794641     0.11000
C385        C  0.56219698  0.99906051  0.65450996     0.63900
H386        H  0.57964537  0.95702854  0.69222255     0.08300
F387        F  0.50241903  0.80108806  0.71518158    -0.19100
F388        F  0.51872450  0.82644195  0.77498498    -0.15400
F389        F  0.53715246  0.79251776  0.75252884    -0.18900
F390        F  0.63687855  0.96242018  0.66293795    -0.22200
F391        F  0.61958306  0.92731329  0.60980123    -0.23700
F392        F  0.66176727  0.93249064  0.64767747    -0.17700
F393        F  0.57548747  0.00680866  0.69261934    -0.20200
F394        F  0.53266067  0.99988924  0.65471533    -0.21300
F395        F  0.58495933  0.02387729  0.62892027    -0.18500
F396        F  0.51657670  0.85309696  0.56971937    -0.18600
F397        F  0.51210952  0.83879964  0.63416583    -0.22400
F398        F  0.56199272  0.86097101  0.60270657    -0.24100
C399        C  0.62555650  0.71801504  0.82592254    -0.10900
C400        C  0.59358799  0.68880226  0.82501425     0.11700
C401        C  0.56909695  0.68702844  0.79828437    -0.02700
C402        C  0.57693133  0.71569800  0.77502045    -0.05400
C403        C  0.60824853  0.74571982  0.77739247    -0.16200
C404        C  0.63369562  0.74630578  0.80153771     0.02700
C405        C  0.58465891  0.66224673  0.85574483     0.12700
C406        C  0.53414423  0.65576514  0.79604310     0.63300
H407        H  0.55764485  0.71561256  0.75683648     0.12700
C408        C  0.66925759  0.77629261  0.80331560     0.55400
H409        H  0.64408180  0.71902949  0.84656926     0.08500
C410        C  0.59110094  0.63519606  0.85111154    -0.05300
C411        C  0.57707667  0.60838639  0.87904142    -0.06000
C412        C  0.55709136  0.60819541  0.91092726    -0.15600
C413        C  0.55318136  0.63682773  0.91723361    -0.01200
C414        C  0.56736436  0.66356822  0.88945469    -0.08800
C415        C  0.61235303  0.63464636  0.81676633     0.65500
H416        H  0.58066654  0.58677284  0.87541270     0.11000
C417        C  0.53431040  0.63941641  0.95302426     0.63900
H418        H  0.56367478  0.68515998  0.89273030     0.08300
F419        F  0.69168898  0.76468244  0.80020524    -0.19100
F420        F  0.67414540  0.79278807  0.83947568    -0.15400
F421        F  0.67632542  0.79939338  0.77273574    -0.18900
F422        F  0.51725610  0.65159209  0.83160150    -0.22200
F423        F  0.53629611  0.62702269  0.78878827    -0.23700
F424        F  0.51529981  0.65853628  0.76579019    -0.17700
F425        F  0.54560511  0.63201851  0.98767697    -0.20200
F426        F  0.50032967  0.61685099  0.94881607    -0.21300
F427        F  0.53893595  0.67182699  0.95690999    -0.18500
F428        F  0.61582535  0.60615578  0.81811274    -0.18600
F429        F  0.64403209  0.66317635  0.81854533    -0.22400
F430        F  0.59783877  0.63454784  0.78072072    -0.24100
C431        C  0.57766927  0.86294985  0.85769173    -0.10900
C432        C  0.59295118  0.89704619  0.84585008     0.11700
C433        C  0.61696191  0.90938542  0.81485426    -0.02700
C434        C  0.62383649  0.88632179  0.79534418    -0.05400
C435        C  0.60581079  0.85126464  0.80401341    -0.16200
C436        C  0.58324900  0.83935805  0.83713497     0.02700
C437        C  0.58293980  0.91904762  0.86674407     0.12700
C438        C  0.63426362  0.94638919  0.80162456     0.63300
H439        H  0.64216387  0.89519210  0.77145670     0.12700
C440        C  0.56533322  0.80261766  0.85203366     0.55400
H441        H  0.56065290  0.85488668  0.88295257     0.08500
C442        C  0.55263004  0.91812927  0.85755097    -0.05300
C443        C  0.54358604  0.93806732  0.88027271    -0.06000
C444        C  0.56332347  0.95787573  0.91223482    -0.15600
C445        C  0.59378319  0.95896758  0.92132381    -0.01200
C446        C  0.60315821  0.93941888  0.89804738    -0.08800
C447        C  0.52903266  0.89484254  0.82545238     0.65500
H448        H  0.52018977  0.93733026  0.87424802     0.11000
C449        C  0.61535868  0.97919126  0.95644755     0.63900
H450        H  0.62594014  0.93910836  0.90468998     0.08300
F451        F  0.53968509  0.79628300  0.87842345    -0.19100
F452        F  0.58783224  0.79641727  0.87203039    -0.15400
F453        F  0.55120211  0.77975518  0.82106174    -0.18900
F454        F  0.65331502  0.96724853  0.83255056    -0.22200
F455        F  0.61060564  0.95495390  0.79069866    -0.23700
F456        F  0.65524830  0.95250282  0.76922289    -0.17700
F457        F  0.64220946  0.97409161  0.96191791    -0.20200
F458        F  0.59636341  0.96935189  0.99108137    -0.21300
F459        F  0.62801419  0.01357969  0.94999601    -0.18500
F460        F  0.50289441  0.90080559  0.81851514    -0.18600
F461        F  0.51538141  0.86135560  0.83746628    -0.22400
F462        F  0.54616270  0.89974510  0.78991526    -0.24100
C463        C  0.42704341  0.35638221  0.14872412    -0.10900
C464        C  0.40154705  0.32741155  0.12989241     0.11700
C465        C  0.39097092  0.32999550  0.09121284    -0.02700
C466        C  0.40811671  0.36156674  0.07141007    -0.05400
C467        C  0.43526722  0.39036188  0.08914422    -0.16200
C468        C  0.44468676  0.38787127  0.12886078     0.02700
C469        C  0.38896548  0.29420707  0.15012510     0.12700
C470        C  0.36200696  0.29941930  0.07095655     0.63300
H471        H  0.40062749  0.36387129  0.04151429     0.12700
C472        C  0.47433235  0.41737874  0.14963835     0.55400
H473        H  0.43408783  0.35354025  0.17867531     0.08500
C474        C  0.40747230  0.27718539  0.14875178    -0.05300
C475        C  0.39558679  0.24691232  0.17039572    -0.06000
C476        C  0.36604152  0.23319133  0.19331682    -0.15600
C477        C  0.34656107  0.24928120  0.19291706    -0.01200
C478        C  0.35895827  0.28021126  0.17206234    -0.08800
C479        C  0.44015832  0.29136315  0.12541592     0.65500
H480        H  0.41036802  0.23452191  0.17132141     0.11000
C481        C  0.31264840  0.23486690  0.21313178     0.63900
H482        H  0.34499242  0.29349965  0.17270261     0.08300
F483        F  0.48127656  0.40776835  0.18594790    -0.19100
F484        F  0.46755292  0.44323453  0.15689313    -0.15400
F485        F  0.50266377  0.42941937  0.12592909    -0.18900
F486        F  0.33315798  0.28794699  0.09351293    -0.22200
F487        F  0.36907382  0.27341523  0.06716520    -0.23700
F488        F  0.35581941  0.30738644  0.03324242    -0.17700
F489        F  0.31494177  0.25609186  0.24403341    -0.20200
F490        F  0.30071919  0.20242462  0.22804377    -0.21300
F491        F  0.28950163  0.23319153  0.18574203    -0.18500
F492        F  0.45290490  0.26959146  0.12635878    -0.18600
F493        F  0.46401939  0.32214525  0.14148583    -0.22400
F494        F  0.43498835  0.29616498  0.08592622    -0.24100
C495        C  0.36679803  0.27448050  0.33616844    -0.10900
C496        C  0.39716619  0.30293388  0.32441581     0.11700
C497        C  0.41487768  0.30083321  0.29113989    -0.02700
C498        C  0.40161157  0.26973220  0.27096627    -0.05400
C499        C  0.37099154  0.24108520  0.28220933    -0.16200
C500        C  0.35307345  0.24345937  0.31545679     0.02700
C501        C  0.41215465  0.33317941  0.35050662     0.12700
C502        C  0.44834713  0.33088008  0.27797663     0.63300
H503        H  0.41614801  0.26705775  0.24739736     0.12700
C504        C  0.32026710  0.21427152  0.33141127     0.55400
H505        H  0.35404756  0.27633527  0.36245265     0.08500
C506        C  0.40461324  0.35952911  0.34684616    -0.05300
C507        C  0.42236892  0.38872367  0.37065653    -0.06000
C508        C  0.44581440  0.39120918  0.39906825    -0.15600
C509        C  0.45209168  0.36392913  0.40393592    -0.01200
C510        C  0.43506927  0.33532263  0.37924821    -0.08800
C511        C  0.37720120  0.35619271  0.31906041     0.65500
H512        H  0.41735815  0.40948611  0.36813090     0.11000
C513        C  0.47715137  0.36514466  0.43417354     0.63900
H514        H  0.43966375  0.31427987  0.38186068     0.08300
F515        F  0.29716756  0.22494714  0.33538221    -0.19100
F516        F  0.32581658  0.20486439  0.36860493    -0.15400
F517        F  0.30625996  0.18595606  0.30701428    -0.18900
F518        F  0.47189771  0.33933555  0.30775295    -0.22200
F519        F  0.44482032  0.35870292  0.26996872    -0.23700
F520        F  0.46047544  0.32363328  0.24378491    -0.17700
F521        F  0.46519802  0.36366724  0.47243151    -0.20200
F522        F  0.50762912  0.39491298  0.42942805    -0.21300
F523        F  0.48260815  0.33805292  0.42973557    -0.18500
F524        F  0.37443163  0.38511687  0.31947236    -0.18600
F525        F  0.34676441  0.32890554  0.33100536    -0.22400
F526        F  0.38377628  0.35082978  0.28031694    -0.24100
C527        C  0.44806445  0.08624074  0.34462001    -0.10900
C528        C  0.42384952  0.09278417  0.36061081     0.11700
C529        C  0.41332941  0.08426784  0.40067233    -0.02700
C530        C  0.42745030  0.06899319  0.42360697    -0.05400
C531        C  0.45200970  0.06251924  0.40805096    -0.16200
C532        C  0.46297801  0.07173537  0.36786972     0.02700
C533        C  0.41024056  0.10934652  0.33511331     0.12700
C534        C  0.38746129  0.09152412  0.41919544     0.63300
H535        H  0.41908435  0.06173263  0.45411492     0.12700
C536        C  0.49080914  0.06744140  0.34965156     0.55400
H537        H  0.45538774  0.09296385  0.31371670     0.08500
C538        C  0.42722700  0.14506222  0.33031469    -0.05300
C539        C  0.41108951  0.15939239  0.30949433    -0.06000
C540        C  0.37903107  0.13915132  0.29283661    -0.15600
C541        C  0.36222448  0.10325603  0.29746148    -0.01200
C542        C  0.37868199  0.08894357  0.31777213    -0.08800
C543        C  0.46244648  0.16779604  0.34639171     0.65500
H544        H  0.42394116  0.18668331  0.30474898     0.11000
C545        C  0.32695143  0.07897574  0.28292445     0.63900
H546        H  0.36618917  0.06153438  0.32160919     0.08300
F547        F  0.51858861  0.08187195  0.37431910    -0.19100
F548        F  0.50081966  0.08318686  0.31275206    -0.15400
F549        F  0.47977201  0.03322124  0.34441546    -0.18900
F550        F  0.35713629  0.07300570  0.39974580    -0.22200
F551        F  0.39816836  0.12583749  0.41609611    -0.23700
F552        F  0.38219861  0.08280877  0.45923501    -0.17700
F553        F  0.32825237  0.05902015  0.25261823    -0.20200
F554        F  0.31074784  0.09547251  0.26919179    -0.21300
F555        F  0.30801372  0.05797034  0.31402826    -0.18500
F556        F  0.47364886  0.20196503  0.33995023    -0.18600
F557        F  0.48441798  0.16007172  0.32748662    -0.22400
F558        F  0.46318362  0.16290098  0.38701020    -0.24100
C559        C  0.36865509  0.09181601  0.15257114    -0.10900
C560        C  0.40181865  0.09969286  0.15843207     0.11700
C561        C  0.42181981  0.12372913  0.18770086    -0.02700
C562        C  0.40793679  0.13985999  0.20958069    -0.05400
C563        C  0.37451208  0.13175932  0.20438475    -0.16200
C564        C  0.35428575  0.10702637  0.17550144     0.02700
C565        C  0.41578389  0.08417546  0.13162284     0.12700
C566        C  0.45800215  0.13318038  0.19492002     0.63300
H567        H  0.42374960  0.16022673  0.22978957     0.12700
C568        C  0.31785568  0.09576693  0.16700047     0.55400
H569        H  0.35386548  0.07369099  0.12952243     0.08500
C570        C  0.41013043  0.05097140  0.13792807    -0.05300
C571        C  0.42613590  0.03899944  0.11255348    -0.06000
C572        C  0.44687521  0.05893556  0.08102701    -0.15600
C573        C  0.45174718  0.09193327  0.07410200    -0.01200
C574        C  0.43571583  0.10382153  0.09959614    -0.08800
C575        C  0.38739277  0.02841336  0.17125518     0.65500
H576        H  0.42244585  0.01374262  0.11702544     0.11000
C577        C  0.47459748  0.11508424  0.04114669     0.63900
H578        H  0.43899128  0.12892566  0.09520599     0.08300
F579        F  0.29864443  0.06072746  0.17075965    -0.19100
F580        F  0.31519223  0.10465822  0.12827955    -0.15400
F581        F  0.30459902  0.10987592  0.19240647    -0.18900
F582        F  0.47740767  0.15010039  0.16200530    -0.22200
F583        F  0.45981013  0.10417131  0.20168542    -0.23700
F584        F  0.47150596  0.15420913  0.22779775    -0.17700
F585        F  0.46083463  0.10180631  0.00427811    -0.20200
F586        F  0.50586283  0.11809443  0.04397818    -0.21300
F587        F  0.47902428  0.14750683  0.04353048    -0.18500
F588        F  0.38624604  0.99741925  0.17275873    -0.18600
F589        F  0.35511723  0.02199142  0.16524828    -0.22400
F590        F  0.39880959  0.04435519  0.20768619    -0.24100
C591        C  0.70941956  0.07386042  0.33670350    -0.10900
C592        C  0.69237616  0.08868309  0.35444507     0.11700
C593        C  0.70674691  0.12445896  0.35455334    -0.02700
C594        C  0.73641915  0.14409021  0.33306004    -0.05400
C595        C  0.75307984  0.12933271  0.31406590    -0.16200
C596        C  0.74042014  0.09386543  0.31755697     0.02700
C597        C  0.66018824  0.06654503  0.37454265     0.12700
C598        C  0.69144042  0.14187481  0.37821618     0.63300
H599        H  0.74686604  0.17132188  0.33066320     0.12700
C600        C  0.75875342  0.07603879  0.30329844     0.55400
H601        H  0.69872587  0.04649397  0.33862413     0.08500
C602        C  0.62932391  0.05587273  0.35533839    -0.05300
C603        C  0.60012109  0.04192804  0.37879421    -0.06000
C604        C  0.60115179  0.03736829  0.42024524    -0.15600
C605        C  0.63158904  0.04289642  0.43775610    -0.01200
C606        C  0.66088333  0.05830436  0.41451850    -0.08800
C607        C  0.62762464  0.05986632  0.31052883     0.65500
H608        H  0.57659384  0.03597413  0.36504577     0.11000
C609        C  0.63382767  0.03302786  0.48051355     0.63900
H610        H  0.68490818  0.06552630  0.42789603     0.08300
F611        F  0.74029171  0.05314786  0.27357986    -0.19100
F612        F  0.76205856  0.05834310  0.33486666    -0.15400
F613        F  0.79052594  0.09825753  0.28891879    -0.18900
F614        F  0.69046165  0.13407181  0.41825678    -0.22200
F615        F  0.65922424  0.13112734  0.36537649    -0.23700
F616        F  0.70996831  0.17697664  0.37431409    -0.17700
F617        F  0.66300369  0.03213067  0.48676346    -0.20200
F618        F  0.60712560  0.00087195  0.48892943    -0.21300
F619        F  0.63371322  0.05648128  0.50668727    -0.18500
F620        F  0.59486516  0.04550360  0.29735700    -0.18600
F621        F  0.64231789  0.04389290  0.29097590    -0.22400
F622        F  0.64451842  0.09393424  0.30023348    -0.24100
C623        C  0.71764251  0.09589303  0.17177619    -0.10900
C624        C  0.69322266  0.10530685  0.17581629     0.11700
C625        C  0.69606638  0.12802855  0.20639676    -0.02700
C626        C  0.72448970  0.14189639  0.23098826    -0.05400
C627        C  0.74979951  0.13369174  0.22589357    -0.16200
C628        C  0.74638772  0.11018967  0.19582575     0.02700
C629        C  0.66479814  0.09082606  0.14757465     0.12700
C630        C  0.66968049  0.13826166  0.21221712     0.63300
H631        H  0.72797652  0.16059475  0.25334468     0.12700
C632        C  0.77216322  0.09972078  0.18688408     0.55400
H633        H  0.71466887  0.07787355  0.14866750     0.08500
C634        C  0.66744934  0.10446374  0.10893302    -0.05300
C635        C  0.63888634  0.08999553  0.08440560    -0.06000
C636        C  0.60823584  0.06195453  0.09697527    -0.15600
C637        C  0.60630471  0.04757057  0.13541340    -0.01200
C638        C  0.63474858  0.06254406  0.16000637    -0.08800
C639        C  0.70044047  0.13379318  0.09356037     0.65500
H640        H  0.64040632  0.10049177  0.05496232     0.11000
C641        C  0.57518272  0.01567313  0.15011228     0.63900
H642        H  0.63386876  0.05231785  0.18948052     0.08300
F643        F  0.78338968  0.10869140  0.14802657    -0.19100
F644        F  0.75724747  0.06475364  0.19070596    -0.15400
F645        F  0.79966158  0.11463610  0.21177054    -0.18900
F646        F  0.63910007  0.10989589  0.22129083    -0.22200
F647        F  0.66644642  0.15296543  0.17768564    -0.23700
F648        F  0.67793367  0.16149044  0.24295813    -0.17700
F649        F  0.56554435  0.99032575  0.12183134    -0.20200
F650        F  0.54953177  0.02240320  0.15687342    -0.21300
F651        F  0.58078034  0.00360862  0.18548562    -0.18500
F652        F  0.69716674  0.14423747  0.05587745    -0.18600
F653        F  0.72407893  0.12373696  0.09134007    -0.22400
F654        F  0.71194400  0.16138856  0.11896236    -0.24100
C655        C  0.94338082  0.33304975  0.40445277    -0.10900
C656        C  0.93026563  0.33292100  0.36684395     0.11700
C657        C  0.93554956  0.36368087  0.34976884    -0.02700
C658        C  0.95277076  0.39375187  0.37213982    -0.05400
C659        C  0.96379972  0.39360796  0.41114761    -0.16200
C660        C  0.96046346  0.36301334  0.42703516     0.02700
C661        C  0.90684954  0.29960496  0.34890453     0.12700
C662        C  0.92152153  0.36440707  0.30901597     0.63300
H663        H  0.95573325  0.41724883  0.36022101     0.12700
C664        C  0.97424691  0.36138494  0.46765274     0.55400
H665        H  0.93853983  0.30899190  0.41690701     0.08500
C666        C  0.91766927  0.28034300  0.32707752    -0.05300
C667        C  0.89325257  0.24928542  0.31035079    -0.06000
C668        C  0.85882275  0.23744528  0.31469782    -0.15600
C669        C  0.84817391  0.25577317  0.33928270    -0.01200
C670        C  0.87267133  0.28672155  0.35579822    -0.08800
C671        C  0.95468108  0.29251797  0.32173960     0.65500
H672        H  0.90084504  0.23401483  0.29349425     0.11000
C673        C  0.81150473  0.24308628  0.34904728     0.63900
H674        H  0.86541824  0.30143364  0.37441746     0.08300
F675        F  0.97483132  0.33144725  0.47246287    -0.19100
F676        F  0.95437436  0.36281199  0.49766547    -0.15400
F677        F  0.00679398  0.38819159  0.47172531    -0.18900
F678        F  0.88687357  0.34694390  0.31051556    -0.22200
F679        F  0.93180020  0.34931558  0.28092282    -0.23700
F680        F  0.93225261  0.39736245  0.29649991    -0.17700
F681        F  0.79927026  0.21526255  0.37420356    -0.20200
F682        F  0.79256733  0.23411102  0.31474477    -0.21300
F683        F  0.80733159  0.26770084  0.36817122    -0.18500
F684        F  0.95973848  0.27082295  0.29755357    -0.18600
F685        F  0.96893270  0.29411150  0.35848340    -0.22400
F686        F  0.97093115  0.32451230  0.30448698    -0.24100
C687        C  0.79780843  0.41538578  0.68129741    -0.10900
C688        C  0.79622583  0.39252422  0.65227742     0.11700
C689        C  0.76798951  0.35914131  0.65162366    -0.02700
C690        C  0.74148984  0.35057073  0.67895816    -0.05400
C691        C  0.74235476  0.37390088  0.70731669    -0.16200
C692        C  0.77145214  0.40718113  0.70840498     0.02700
C693        C  0.82530676  0.40472612  0.62406457     0.12700
C694        C  0.76588911  0.33266639  0.62234844     0.63300
H695        H  0.71962662  0.32522757  0.67845836     0.12700
C696        C  0.77655008  0.43605750  0.73551426     0.55400
H697        H  0.81991841  0.44063036  0.68213005     0.08500
C698        C  0.83017360  0.42691933  0.59176886    -0.05300
C699        C  0.86066505  0.44158271  0.57014996    -0.06000
C700        C  0.88633742  0.43455700  0.57925695    -0.15600
C701        C  0.88052725  0.41084337  0.61052294    -0.01200
C702        C  0.85032034  0.39689317  0.63264283    -0.08800
C703        C  0.80347312  0.43558926  0.58063576     0.65500
H704        H  0.86485739  0.45918855  0.54607355     0.11000
C705        C  0.90634630  0.40105622  0.62192589     0.63900
H706        H  0.84620565  0.38021055  0.65773672     0.08300
F707        F  0.78231702  0.46383005  0.71260004    -0.19100
F708        F  0.80418611  0.44539655  0.75929380    -0.15400
F709        F  0.74972910  0.42797696  0.75983148    -0.18900
F710        F  0.79168619  0.32629960  0.62940516    -0.22200
F711        F  0.76846252  0.34431887  0.58368047    -0.23700
F712        F  0.73586809  0.30214937  0.62585688    -0.17700
F713        F  0.89648856  0.37982793  0.65496045    -0.20200
F714        F  0.93639644  0.43004757  0.63097743    -0.21300
F715        F  0.91089922  0.38390071  0.59068181    -0.18500
F716        F  0.81145734  0.45438270  0.54568754    -0.18600
F717        F  0.80012721  0.45445778  0.61072425    -0.22400
F718        F  0.77301942  0.40605686  0.57504965    -0.24100
C719        C  0.94675547  0.35418958  0.16866665    -0.10900
C720        C  0.92543360  0.32225331  0.15181926     0.11700
C721        C  0.92048937  0.31917386  0.11006343    -0.02700
C722        C  0.93607869  0.34874903  0.08675470    -0.05400
C723        C  0.95628712  0.38136523  0.10340934    -0.16200
C724        C  0.96255023  0.38404664  0.14536517     0.02700
C725        C  0.90395726  0.29428459  0.17928185     0.12700
C726        C  0.89846077  0.28581251  0.08825281     0.63300
H727        H  0.93147590  0.34604524  0.05489187     0.12700
C728        C  0.98497810  0.41777181  0.16625630     0.55400
H729        H  0.94965642  0.35560479  0.20079458     0.08500
C730        C  0.91191135  0.26964327  0.19210190    -0.05300
C731        C  0.88798348  0.24190878  0.21469063    -0.06000
C732        C  0.85735841  0.23913615  0.22579575    -0.15600
C733        C  0.84981366  0.26436354  0.21339493    -0.01200
C734        C  0.87374138  0.29188301  0.19088402    -0.08800
C735        C  0.94533921  0.27276173  0.18182366     0.65500
H736        H  0.89290226  0.22199988  0.22378907     0.11000
C737        C  0.81727046  0.26386398  0.22214348     0.63900
H738        H  0.86831956  0.31130643  0.18096200     0.08300
F739        F  0.98866503  0.41344242  0.20646999    -0.19100
F740        F  0.97118592  0.43851861  0.16327106    -0.15400
F741        F  0.01664418  0.43369326  0.14924309    -0.18900
F742        F  0.87255962  0.28730701  0.06960506    -0.22200
F743        F  0.88461585  0.25752446  0.11278274    -0.23700
F744        F  0.91747407  0.28135335  0.05950306    -0.17700
F745        F  0.82375965  0.29013788  0.24809821    -0.20200
F746        F  0.79267724  0.23371295  0.23858146    -0.21300
F747        F  0.80459426  0.26880180  0.18701011    -0.18500
F748        F  0.94777535  0.24571212  0.19676393    -0.18600
F749        F  0.97097984  0.30250857  0.19799485    -0.22400
F750        F  0.94942951  0.27354726  0.14087690    -0.24100
C751        C  0.83599936  0.38078841  0.89389456    -0.10900
C752        C  0.83372016  0.40204766  0.86519300     0.11700
C753        C  0.86101478  0.43582725  0.86083984    -0.02700
C754        C  0.88954298  0.44701842  0.88524103    -0.05400
C755        C  0.89203740  0.42592165  0.91411035    -0.16200
C756        C  0.86471211  0.39188926  0.91827159     0.02700
C757        C  0.80139591  0.38923186  0.84259211     0.12700
C758        C  0.86020577  0.46009215  0.83036743     0.63300
H759        H  0.91040354  0.47275927  0.88187081     0.12700
C760        C  0.86512973  0.36748032  0.94889536     0.55400
H761        H  0.81469903  0.35530517  0.89733032     0.08500
C762        C  0.79277560  0.36771530  0.80883772    -0.05300
C763        C  0.76206452  0.35754349  0.78904160    -0.06000
C764        C  0.73981462  0.36873259  0.80090929    -0.15600
C765        C  0.74805802  0.38908867  0.83637625    -0.01200
C766        C  0.77844624  0.39843337  0.85640281    -0.08800
C767        C  0.81598084  0.35554357  0.79382456     0.65500
H768        H  0.75523305  0.34061614  0.76369954     0.11000
C769        C  0.72594755  0.40165396  0.85421275     0.63900
H770        H  0.78488493  0.41352511  0.88340803     0.08300
F771        F  0.88959684  0.35974057  0.93889759    -0.19100
F772        F  0.83475233  0.33719932  0.95071444    -0.15400
F773        F  0.87156111  0.38212688  0.98641705    -0.18900
F774        F  0.83368407  0.46518101  0.83830059    -0.22200
F775        F  0.85669009  0.44657872  0.79259184    -0.23700
F776        F  0.88934568  0.49160470  0.83078695    -0.17700
F777        F  0.69970643  0.37563092  0.87510845    -0.20200
F778        F  0.71377599  0.41364113  0.82494201    -0.21300
F779        F  0.74351372  0.42824571  0.88066285    -0.18500
F780        F  0.80382527  0.33609810  0.75956476    -0.18600
F781        F  0.81938135  0.33585094  0.82275984    -0.22400
F782        F  0.84722029  0.38313584  0.78515609    -0.24100
C783        C  0.86554513  0.55172629  0.30345563    -0.10900
C784        C  0.89391145  0.57854217  0.32143952     0.11700
C785        C  0.90276227  0.61262793  0.31382939    -0.02700
C786        C  0.88145796  0.61860367  0.28973451    -0.05400
C787        C  0.85305213  0.59179445  0.27160724    -0.16200
C788        C  0.84469987  0.55764548  0.27860933     0.02700
C789        C  0.91291729  0.56969899  0.34939888     0.12700
C790        C  0.93433205  0.64236337  0.33124104     0.63300
H791        H  0.88641353  0.64431965  0.28555713     0.12700
C792        C  0.81343224  0.52649906  0.26290903     0.55400
H793        H  0.85920087  0.52573698  0.30972367     0.08500
C794        C  0.90165520  0.55925654  0.38889421    -0.05300
C795        C  0.91936632  0.54855123  0.41292747    -0.06000
C796        C  0.94790994  0.54815377  0.39886330    -0.15600
C797        C  0.95998248  0.56016574  0.35959494    -0.01200
C798        C  0.94168522  0.57016935  0.33531291    -0.08800
C799        C  0.87070035  0.55880834  0.40536815     0.65500
H800        H  0.91034401  0.53950924  0.44283864     0.11000
C801        C  0.99214423  0.56323430  0.34322565     0.63900
H802        H  0.94943872  0.57812103  0.30476829     0.08300
F803        F  0.79206642  0.50978221  0.29456286    -0.19100
F804        F  0.82226471  0.50467975  0.24509803    -0.15400
F805        F  0.79620136  0.53409107  0.23511636    -0.18900
F806        F  0.96219387  0.64198159  0.31676865    -0.22200
F807        F  0.93384093  0.64006476  0.37239342    -0.23700
F808        F  0.93747896  0.67336804  0.32115797    -0.17700
F809        F  0.98768999  0.53119055  0.33666828    -0.20200
F810        F  0.01808599  0.58085161  0.36994459    -0.21300
F811        F  0.00157297  0.58074438  0.30732144    -0.18500
F812        F  0.86616613  0.55094629  0.44566311    -0.18600
F813        F  0.84246335  0.53469669  0.38544396    -0.22400
F814        F  0.87366764  0.59039678  0.40054524    -0.24100
C815        C  0.92619904  0.54998062  0.14566234    -0.10900
C816        C  0.92120972  0.57379003  0.12498513     0.11700
C817        C  0.93539280  0.58515043  0.08679578    -0.02700
C818        C  0.95154815  0.56951796  0.06868341    -0.05400
C819        C  0.95464767  0.54379284  0.08809122    -0.16200
C820        C  0.94280441  0.53457854  0.12794222     0.02700
C821        C  0.89882115  0.58430436  0.14321853     0.12700
C822        C  0.93363315  0.61373281  0.06557172     0.63300
H823        H  0.96182960  0.57725543  0.03891314     0.12700
C824        C  0.94633184  0.50791456  0.15135706     0.55400
H825        H  0.91571609  0.54264761  0.17542001     0.08500
C826        C  0.86357164  0.56325960  0.14086076    -0.05300
C827        C  0.84359877  0.57292388  0.16210433    -0.06000
C828        C  0.85769487  0.60321900  0.18419884    -0.15600
C829        C  0.89287078  0.62569214  0.18357968    -0.01200
C830        C  0.91300031  0.61511708  0.16416442    -0.08800
C831        C  0.84714744  0.53084496  0.11599264     0.65500
H832        H  0.81661363  0.55645426  0.16229310     0.11000
C833        C  0.91039275  0.66123181  0.20118040     0.63900
H834        H  0.94007617  0.63123849  0.16498540     0.08300
F835        F  0.93207898  0.47761860  0.13033019    -0.19100
F836        F  0.93054781  0.50132595  0.18817539    -0.15400
F837        F  0.97989648  0.51930739  0.15807922    -0.18900
F838        F  0.95084288  0.64338335  0.08750492    -0.22200
F839        F  0.90066399  0.60570789  0.06150323    -0.23700
F840        F  0.94788713  0.61984690  0.02787209    -0.17700
F841        F  0.93289366  0.66367744  0.22998101    -0.20200
F842        F  0.88846243  0.67004987  0.21794561    -0.21300
F843        F  0.92802002  0.68448754  0.17125559    -0.18500
F844        F  0.81248811  0.51500846  0.11692542    -0.18600
F845        F  0.85604588  0.50800049  0.13022215    -0.22400
F846        F  0.85732275  0.53849606  0.07665203    -0.24100
C847        C  0.72226829  0.60893640  0.32886892    -0.10900
C848        C  0.69185607  0.57938470  0.32032734     0.11700
C849        C  0.68905397  0.55912430  0.28700197    -0.02700
C850        C  0.71826773  0.56706485  0.26579146    -0.05400
C851        C  0.74917201  0.59593425  0.27516735    -0.16200
C852        C  0.75118095  0.61799537  0.30627269     0.02700
C853        C  0.66353030  0.56959862  0.34769986     0.12700
C854        C  0.65536169  0.52966943  0.27379491     0.63300
H855        H  0.71721035  0.55075306  0.24168189     0.12700
C856        C  0.78350247  0.65085677  0.31562062     0.55400
H857        H  0.72328823  0.62439119  0.35403818     0.08500
C858        C  0.65896166  0.54940839  0.38180401    -0.05300
C859        C  0.63058126  0.53961440  0.40562391    -0.06000
C860        C  0.60698734  0.54927816  0.39613488    -0.15600
C861        C  0.61233019  0.57062899  0.36273164    -0.01200
C862        C  0.64094149  0.58064780  0.33907759    -0.08800
C863        C  0.68390958  0.53827661  0.39289039     0.65500
H864        H  0.62619160  0.52363540  0.43153754     0.11000
C865        C  0.58846501  0.58324035  0.35232705     0.63900
H866        H  0.64561895  0.59659839  0.31305588     0.08300
F867        F  0.80634519  0.64367982  0.33294370    -0.19100
F868        F  0.77804204  0.67113049  0.34180767    -0.15400
F869        F  0.79715472  0.66934611  0.28098088    -0.18900
F870        F  0.63388399  0.54163893  0.26517749    -0.22200
F871        F  0.64134201  0.50550316  0.30370184    -0.23700
F872        F  0.65830422  0.51396557  0.23987437    -0.17700
F873        F  0.60129216  0.60766234  0.32247347    -0.20200
F874        F  0.58279825  0.59767289  0.38560105    -0.21300
F875        F  0.55839522  0.55639113  0.33900085    -0.18500
F876        F  0.67410191  0.51811163  0.42683375    -0.18600
F877        F  0.71495261  0.56659532  0.40014097    -0.22400
F878        F  0.68687941  0.51970568  0.36213822    -0.24100
C879        C  0.63081413  0.56941453  0.15912680    -0.10900
C880        C  0.66066958  0.59063832  0.13843013     0.11700
C881        C  0.65954874  0.59972620  0.09845440    -0.02700
C882        C  0.62828014  0.58580682  0.07979155    -0.05400
C883        C  0.59837710  0.56166577  0.09890350    -0.16200
C884        C  0.59935567  0.55458215  0.14011438     0.02700
C885        C  0.69255325  0.59733128  0.15646785     0.12700
C886        C  0.69136686  0.62160793  0.07441773     0.63300
H887        H  0.62735437  0.59209243  0.04883852     0.12700
C888        C  0.56806321  0.53049235  0.16368271     0.55400
H889        H  0.63265859  0.56284412  0.18969509     0.08500
C890        C  0.71151156  0.62469815  0.18274719    -0.05300
C891        C  0.74208065  0.62924166  0.19714146    -0.06000
C892        C  0.75294524  0.60624127  0.18765127    -0.15600
C893        C  0.73326802  0.57826562  0.16199331    -0.01200
C894        C  0.70344499  0.57459099  0.14669434    -0.08800
C895        C  0.69882225  0.64792530  0.19672121     0.65500
H896        H  0.75700948  0.64983392  0.21756619     0.11000
C897        C  0.74276926  0.55164479  0.15149962     0.63900
H898        H  0.68803297  0.55364696  0.12683774     0.08300
F899        F  0.54604386  0.54269858  0.16397686    -0.19100
F900        F  0.57532082  0.52732660  0.20298674    -0.15400
F901        F  0.55277393  0.49844005  0.14667233    -0.18900
F902        F  0.70782461  0.60375052  0.06771779    -0.22200
F903        F  0.71247177  0.65119891  0.09482564    -0.23700
F904        F  0.68451276  0.63071706  0.03773862    -0.17700
F905        F  0.71721527  0.52416605  0.13150053    -0.20200
F906        F  0.74953551  0.53924222  0.18570143    -0.21300
F907        F  0.77063937  0.56587398  0.12692673    -0.18500
F908        F  0.72133980  0.67306288  0.22213343    -0.18600
F909        F  0.66885779  0.62900306  0.21703645    -0.22400
F910        F  0.69366175  0.66359701  0.16444077    -0.24100
C911        C  0.28786525  0.87027099  0.65644137    -0.10900
C912        C  0.30078553  0.90500075  0.66373487     0.11700
C913        C  0.28512699  0.91559238  0.69193063    -0.02700
C914        C  0.25656626  0.89055757  0.71219679    -0.05400
C915        C  0.24428849  0.85569473  0.70598616    -0.16200
C916        C  0.26028253  0.84519338  0.67778065     0.02700
C917        C  0.33309178  0.92888337  0.64447614     0.12700
C918        C  0.29936100  0.95297973  0.70156260     0.63300
H919        H  0.24411393  0.89799318  0.73390191     0.12700
C920        C  0.24921637  0.80792510  0.67054453     0.55400
H921        H  0.30053447  0.86299866  0.63471986     0.08500
C922        C  0.36286608  0.92912573  0.65508633    -0.05300
C923        C  0.39058162  0.94522317  0.62962502    -0.06000
C924        C  0.39033949  0.96305925  0.59571002    -0.15600
C925        C  0.36179281  0.96587096  0.58720470    -0.01200
C926        C  0.33301586  0.94761089  0.61123495    -0.08800
C927        C  0.36659665  0.91226119  0.69226034     0.65500
H928        H  0.41288088  0.94395329  0.63644402     0.11000
C929        C  0.36136726  0.98707303  0.55247346     0.63900
H930        H  0.30993045  0.94693888  0.60358171     0.08300
F931        F  0.27338717  0.80446847  0.64999055    -0.19100
F932        F  0.22027843  0.79291402  0.64800458    -0.15400
F933        F  0.24343125  0.79058285  0.70627676    -0.18900
F934        F  0.33261275  0.96744679  0.71268544    -0.22200
F935        F  0.28213526  0.95755070  0.73255272    -0.23700
F936        F  0.29722618  0.96979766  0.66836099    -0.17700
F937        F  0.33027177  0.98424437  0.54795189    -0.20200
F938        F  0.36916616  0.97659852  0.51733610    -0.21300
F939        F  0.38463331  0.02101875  0.55907370    -0.18500
F940        F  0.39532515  0.93530773  0.71240018    -0.18600
F941        F  0.36950951  0.88455276  0.68130903    -0.22400
F942        F  0.33997904  0.90144114  0.71842841    -0.24100
C943        C  0.08081733  0.70750631  0.69092038    -0.10900
C944        C  0.09337591  0.69098998  0.66726901     0.11700
C945        C  0.12832843  0.70368971  0.66533648    -0.02700
C946        C  0.14956527  0.73212273  0.68843892    -0.05400
C947        C  0.13724585  0.74883310  0.71214874    -0.16200
C948        C  0.10234206  0.73689250  0.71292672     0.02700
C949        C  0.06985777  0.66074055  0.64387490     0.12700
C950        C  0.14320316  0.68736658  0.63892957     0.63300
H951        H  0.17625370  0.74147075  0.68860353     0.12700
C952        C  0.08655389  0.75419147  0.73544528     0.55400
H953        H  0.05399629  0.69770264  0.69155598     0.08500
C954        C  0.05672507  0.62744339  0.65923678    -0.05300
C955        C  0.04216905  0.59990764  0.63255027    -0.06000
C956        C  0.03895969  0.60500095  0.59194682    -0.15600
C957        C  0.04822398  0.63785916  0.57765020    -0.01200
C958        C  0.06402598  0.66553352  0.60402767    -0.08800
C959        C  0.05845330  0.62138220  0.70345061     0.65500
H960        H  0.03374860  0.57427946  0.64298336     0.11000
C961        C  0.04225080  0.64356141  0.53456316     0.63900
H962        H  0.07347325  0.69128894  0.59335768     0.08300
F963        F  0.06707738  0.73326540  0.76626824    -0.19100
F964        F  0.06625565  0.75962747  0.70984480    -0.15400
F965        F  0.10989421  0.78536440  0.75102795    -0.18900
F966        F  0.13511346  0.68848529  0.59949213    -0.22200
F967        F  0.13077196  0.65382326  0.64999234    -0.23700
F968        F  0.17783364  0.70403345  0.64167200    -0.17700
F969        F  0.05373128  0.67758643  0.52664044    -0.20200
F970        F  0.00823290  0.62534877  0.52664016    -0.21300
F971        F  0.05867238  0.63270987  0.50924416    -0.18500
F972        F  0.04419491  0.58707593  0.71224141    -0.18600
F973        F  0.04130523  0.63394579  0.72466300    -0.22400
F974        F  0.09142876  0.63781864  0.71585864    -0.24100
C975        C  0.28643920  0.89626963  0.84139332    -0.10900
C976        C  0.31443515  0.89298774  0.83316826     0.11700
C977        C  0.31222339  0.86915150  0.80439412    -0.02700
C978        C  0.28164445  0.84931352  0.78448058    -0.05400
C979        C  0.25343623  0.85217962  0.79318416    -0.16200
C980        C  0.25575929  0.87619280  0.82178303     0.02700
C981        C  0.34465542  0.91245647  0.85808838     0.12700
C982        C  0.34147933  0.86358226  0.79604994     0.63300
H983        H  0.27912903  0.83040208  0.76301835     0.12700
C984        C  0.22582521  0.87996837  0.83246075     0.55400
H985        H  0.28854388  0.91393988  0.86445082     0.08500
C986        C  0.36771323  0.94747179  0.85190825    -0.05300
C987        C  0.39569512  0.96385864  0.87719924    -0.06000
C988        C  0.40144867  0.94616420  0.90765614    -0.15600
C989        C  0.37787336  0.91099112  0.91398758    -0.01200
C990        C  0.34955045  0.89505484  0.88931375    -0.08800
C991        C  0.36318388  0.96714780  0.81824754     0.65500
H992        H  0.41378170  0.99060334  0.87277228     0.11000
C993        C  0.38193688  0.89006684  0.94662739     0.63900
H994        H  0.33097949  0.86844388  0.89373398     0.08300
F995        F  0.23499758  0.90823736  0.85620514    -0.19100
F996        F  0.20245502  0.85152716  0.85319680    -0.15400
F997        F  0.21118543  0.88354171  0.79828229    -0.18900
F998        F  0.34625125  0.84759326  0.82831169    -0.22200
F999        F  0.37050856  0.89440594  0.78947308    -0.23700
F1000       F  0.33579169  0.84338362  0.76272111    -0.17700
F1001       F  0.35371595  0.85805547  0.95049464    -0.20200
F1002       F  0.38732674  0.90638744  0.98301523    -0.21300
F1003       F  0.40867885  0.88554909  0.93761131    -0.18500
F1004       F  0.38879663  0.00083311  0.81726444    -0.18600
F1005       F  0.33327055  0.96677938  0.82292065    -0.22400
F1006       F  0.36293809  0.95242453  0.78208641    -0.24100
C1007       C  0.11045673  0.71333486  0.85622331    -0.10900
C1008       C  0.11218478  0.68437178  0.84623941     0.11700
C1009       C  0.13041207  0.68462021  0.81216305    -0.02700
C1010       C  0.14735779  0.71468710  0.78965041    -0.05400
C1011       C  0.14601408  0.74395474  0.79971427    -0.16200
C1012       C  0.12720221  0.74339899  0.83362450     0.02700
C1013       C  0.09397195  0.65365510  0.87141365     0.12700
C1014       C  0.13245603  0.65345543  0.80019273     0.63300
H1015       H  0.16272817  0.71592220  0.76454245     0.12700
C1016       C  0.12391444  0.77332170  0.84781738     0.55400
H1017       H  0.09596217  0.71246773  0.88218967     0.08500
C1018       C  0.10825340  0.64899754  0.90638500    -0.05300
C1019       C  0.09060783  0.61775958  0.92667462    -0.06000
C1020       C  0.05908752  0.59182676  0.91354554    -0.15600
C1021       C  0.04439655  0.59702874  0.87913694    -0.01200
C1022       C  0.06217940  0.62821977  0.85880312    -0.08800
C1023       C  0.14169093  0.67701437  0.92234245     0.65500
H1024       H  0.10109765  0.61347520  0.95341904     0.11000
C1025       C  0.01089250  0.56944183  0.86287568     0.63900
H1026       H  0.05176691  0.63284876  0.83221471     0.08300
F1027       F  0.13824091  0.78321406  0.88520699    -0.19100
F1028       F  0.09029038  0.76333527  0.85066000    -0.15400
F1029       F  0.13901337  0.80124614  0.82281364    -0.18900
F1030       F  0.10069567  0.62630400  0.79290341    -0.22200
F1031       F  0.14686496  0.64462660  0.83049001    -0.23700
F1032       F  0.15152583  0.65925591  0.76601275    -0.17700
F1033       F  0.98534849  0.56412853  0.88879863    -0.20200
F1034       F  0.01131920  0.53943354  0.85825569    -0.21300
F1035       F  0.00391414  0.57822569  0.82606076    -0.18500
F1036       F  0.15131432  0.66680924  0.95627582    -0.18600
F1037       F  0.13923110  0.70521735  0.93204219    -0.22400
F1038       F  0.16653734  0.68621878  0.89389329    -0.24100
C1039       C  0.36644171  0.44744808  0.63255431    -0.10900
C1040       C  0.33707126  0.42107426  0.61572759     0.11700
C1041       C  0.33731401  0.40842512  0.57733804    -0.02700
C1042       C  0.36813705  0.42161849  0.55757221    -0.05400
C1043       C  0.39745445  0.44839808  0.57412257    -0.16200
C1044       C  0.39686549  0.46206659  0.61179271     0.02700
C1045       C  0.30588833  0.40977249  0.63773159     0.12700
C1046       C  0.30506321  0.38254962  0.55680118     0.63300
H1047       H  0.36938547  0.41231093  0.52821283     0.12700
C1048       C  0.42796899  0.49211415  0.62961609     0.55400
H1049       H  0.36496803  0.45724150  0.66151958     0.08500
C1050       C  0.29442804  0.38379573  0.66670688    -0.05300
C1051       C  0.26507977  0.37558997  0.68762454    -0.06000
C1052       C  0.24956023  0.39512182  0.68336044    -0.15600
C1053       C  0.26134809  0.42150257  0.65418483    -0.01200
C1054       C  0.28920441  0.42776449  0.63125771    -0.08800
C1055       C  0.31447248  0.36683099  0.67753227     0.65500
H1056       H  0.25519155  0.35522212  0.70940366     0.11000
C1057       C  0.24630791  0.44434167  0.64790647     0.63900
H1058       H  0.29902518  0.44766158  0.60879543     0.08300
F1059       F  0.42259645  0.49843257  0.66856287    -0.19100
F1060       F  0.43693393  0.52110263  0.60736803    -0.15400
F1061       F  0.45422497  0.48569809  0.62962790    -0.18900
F1062       F  0.28468571  0.39635931  0.55133713    -0.22200
F1063       F  0.28810204  0.35343601  0.57975768    -0.23700
F1064       F  0.31120750  0.37327607  0.51977388    -0.17700
F1065       F  0.26825083  0.47385924  0.62752114    -0.20200
F1066       F  0.23910742  0.45415138  0.68389091    -0.21300
F1067       F  0.21732358  0.42735777  0.62560359    -0.18500
F1068       F  0.29782599  0.34100587  0.70523730    -0.18600
F1069       F  0.34481331  0.39081415  0.69380361    -0.22400
F1070       F  0.32052803  0.35299768  0.64405743    -0.24100
C1071       C  0.31756762  0.43912569  0.79913456    -0.10900
C1072       C  0.31840487  0.41186786  0.81717173     0.11700
C1073       C  0.29131377  0.37826881  0.81214943    -0.02700
C1074       C  0.26369624  0.37324569  0.78925250    -0.05400
C1075       C  0.26252881  0.40069294  0.77178010    -0.16200
C1076       C  0.29006095  0.43429407  0.77648551     0.02700
C1077       C  0.34597710  0.42063522  0.84558716     0.12700
C1078       C  0.29091256  0.34819185  0.83233383     0.63300
H1079       H  0.24208181  0.34792625  0.78607789     0.12700
C1080       C  0.29108929  0.46523999  0.75797692     0.55400
H1081       H  0.33860666  0.46458479  0.80385600     0.08500
C1082       C  0.37874634  0.42970782  0.83292216    -0.05300
C1083       C  0.40457339  0.44255251  0.86144313    -0.06000
C1084       C  0.39856935  0.44772779  0.90115388    -0.15600
C1085       C  0.36588553  0.43862942  0.91374768    -0.01200
C1086       C  0.33994621  0.42497591  0.88558991    -0.08800
C1087       C  0.38648670  0.42660186  0.78951023     0.65500
H1088       H  0.42990367  0.44966199  0.85276926     0.11000
C1089       C  0.35864702  0.44350713  0.95671346     0.63900
H1090       H  0.31483753  0.41871539  0.89421121     0.08300
F1091       F  0.29813169  0.46637573  0.71783564    -0.19100
F1092       F  0.31569417  0.49527146  0.77499792    -0.15400
F1093       F  0.26092746  0.46404940  0.76310266    -0.18900
F1094       F  0.28947099  0.35102457  0.87326354    -0.22200
F1095       F  0.31957169  0.34735927  0.82263735    -0.23700
F1096       F  0.26353337  0.31753087  0.82070671    -0.17700
F1097       F  0.32481438  0.43119050  0.96318335    -0.20200
F1098       F  0.37588126  0.47779491  0.96611039    -0.21300
F1099       F  0.36874727  0.42636995  0.98201586    -0.18500
F1100       F  0.41979504  0.43600989  0.78403962    -0.18600
F1101       F  0.37991995  0.44741007  0.76580436    -0.22400
F1102       F  0.36694148  0.39332995  0.77687301    -0.24100
C1103       C  0.10251316  0.38226748  0.65646862    -0.10900
C1104       C  0.11120170  0.41659662  0.65701835     0.11700
C1105       C  0.13615224  0.43967632  0.68332639    -0.02700
C1106       C  0.15353253  0.42800292  0.70626868    -0.05400
C1107       C  0.14582745  0.39400031  0.70505544    -0.16200
C1108       C  0.11928085  0.37034026  0.68057532     0.02700
C1109       C  0.09304477  0.42784883  0.63097497     0.12700
C1110       C  0.14459758  0.47654306  0.68696122     0.63300
H1111       H  0.17443463  0.44584428  0.72392630     0.12700
C1112       C  0.10768262  0.33265510  0.67864476     0.55400
H1113       H  0.08254287  0.36470613  0.63695583     0.08500
C1114       C  0.10453855  0.44069510  0.59212022    -0.05300
C1115       C  0.08846245  0.45524297  0.57130996    -0.06000
C1116       C  0.06080555  0.45582496  0.58779464    -0.15600
C1117       C  0.04856361  0.44162511  0.62602541    -0.01200
C1118       C  0.06511287  0.42786791  0.64710537    -0.08800
C1119       C  0.13294868  0.43816317  0.57257824     0.65500
H1120       H  0.09677551  0.46549241  0.54158673     0.11000
C1121       C  0.01857442  0.44153165  0.64477066     0.63900
H1122       H  0.05677207  0.41745788  0.67676816     0.08300
F1123       F  0.11290562  0.32458878  0.64051582    -0.19100
F1124       F  0.07374742  0.31401919  0.68726419    -0.15400
F1125       F  0.12408312  0.32295903  0.70534022    -0.18900
F1126       F  0.11664119  0.47755051  0.69976907    -0.22200
F1127       F  0.15480949  0.49284443  0.65049153    -0.23700
F1128       F  0.17007499  0.49456980  0.71412724    -0.17700
F1129       F  0.98991647  0.41966653  0.62384341    -0.20200
F1130       F  0.02320904  0.47404846  0.64395266    -0.21300
F1131       F  0.01383849  0.43075874  0.68412852    -0.18500
F1132       F  0.14043987  0.45267016  0.53488489    -0.18600
F1133       F  0.12374919  0.40426519  0.56887543    -0.22400
F1134       F  0.16169760  0.45459205  0.59540298    -0.24100
C1135       C  0.13716928  0.42138870  0.84204172    -0.10900
C1136       C  0.10427224  0.39391654  0.84213977     0.11700
C1137       C  0.09497420  0.36567587  0.81700469    -0.02700
C1138       C  0.11995580  0.36540361  0.79342021    -0.05400
C1139       C  0.15315848  0.39285897  0.79343933    -0.16200
C1140       C  0.16214435  0.42160710  0.81818070     0.02700
C1141       C  0.08031742  0.39766799  0.86738193     0.12700
C1142       C  0.05897840  0.33644992  0.81466055     0.63300
H1143       H  0.11367981  0.34387457  0.77421742     0.12700
C1144       C  0.19718222  0.45296239  0.81916358     0.55400
H1145       H  0.14297102  0.44294438  0.86105974     0.08500
C1146       C  0.08065821  0.39470086  0.90940994    -0.05300
C1147       C  0.06431456  0.40765689  0.93257534    -0.06000
C1148       C  0.04850577  0.42359869  0.91465420    -0.15600
C1149       C  0.04637303  0.42467854  0.87274826    -0.01200
C1150       C  0.06258122  0.41166279  0.84953515    -0.08800
C1151       C  0.09964706  0.37959543  0.92960541     0.65500
H1152       H  0.06512867  0.40695545  0.96486228     0.11000
C1153       C  0.02796075  0.44052911  0.85301672     0.63900
H1154       H  0.06335362  0.41425059  0.81734352     0.08300
F1155       F  0.21982138  0.44500307  0.83531006    -0.19100
F1156       F  0.19827417  0.47879742  0.84218408    -0.15400
F1157       F  0.20730751  0.46576373  0.78121939    -0.18900
F1158       F  0.03841742  0.34837236  0.80160860    -0.22200
F1159       F  0.04818817  0.32172437  0.85183565    -0.23700
F1160       F  0.05567237  0.31142017  0.78840659    -0.17700
F1161       F  0.02803908  0.43808654  0.81182982    -0.20200
F1162       F  0.04311298  0.47462561  0.86306626    -0.21300
F1163       F  0.99496117  0.42401719  0.86589789    -0.18500
F1164       F  0.09346472  0.37563564  0.97027125    -0.18600
F1165       F  0.13376180  0.40065519  0.92395837    -0.22400
F1166       F  0.09000699  0.34793427  0.91371391    -0.24100
C1167       C  0.17882319  0.56815519  0.09713920    -0.10900
C1168       C  0.17696719  0.57834422  0.13616585     0.11700
C1169       C  0.14561822  0.57261929  0.15058572    -0.02700
C1170       C  0.11711437  0.55555558  0.12602784    -0.05400
C1171       C  0.11855945  0.54499104  0.08684436    -0.16200
C1172       C  0.15041490  0.55189571  0.07193389     0.02700
C1173       C  0.20881054  0.59697107  0.15963260     0.12700
C1174       C  0.14043314  0.58418558  0.19119826     0.63300
H1175       H  0.09332078  0.55113230  0.13769347     0.12700
C1176       C  0.15497937  0.54242691  0.02981214     0.55400
H1177       H  0.20316165  0.57355880  0.08637759     0.08500
C1178       C  0.21948793  0.58047701  0.18666135    -0.05300
C1179       C  0.24896934  0.60027048  0.20923027    -0.06000
C1180       C  0.26868851  0.63591400  0.20491714    -0.15600
C1181       C  0.25819659  0.65215958  0.17661770    -0.01200
C1182       C  0.22840394  0.63225941  0.15477999    -0.08800
C1183       C  0.19992058  0.54204016  0.19095167     0.65500
H1184       H  0.25711163  0.58788992  0.23024763     0.11000
C1185       C  0.27680716  0.69038630  0.17035059     0.63900
H1186       H  0.21975653  0.64414609  0.13365452     0.08300
F1187       F  0.18748129  0.54961817  0.02283015    -0.19100
F1188       F  0.14804342  0.56077375  0.00240729    -0.15400
F1189       F  0.13383770  0.50790062  0.02370106    -0.18900
F1190       F  0.12746744  0.60548197  0.18598724    -0.22200
F1191       F  0.16949463  0.60159725  0.21323780    -0.23700
F1192       F  0.11767896  0.55602567  0.21296864    -0.17700
F1193       F  0.30791950  0.70129389  0.15369735    -0.20200
F1194       F  0.28016640  0.70614229  0.20635070    -0.21300
F1195       F  0.25981825  0.70059917  0.14513011    -0.18500
F1196       F  0.21446812  0.53069994  0.21838076    -0.18600
F1197       F  0.19879304  0.52722499  0.15449221    -0.22400
F1198       F  0.16756246  0.53141876  0.20348892    -0.24100
C1199       C  0.23146047  0.60606716  0.35202550    -0.10900
C1200       C  0.20948660  0.61796236  0.34378736     0.11700
C1201       C  0.21796594  0.64238082  0.31306847    -0.02700
C1202       C  0.24785262  0.65324577  0.29091057    -0.05400
C1203       C  0.26939484  0.64021923  0.29772497    -0.16200
C1204       C  0.26072150  0.61585227  0.32917333     0.02700
C1205       C  0.17681288  0.60226540  0.36630675     0.12700
C1206       C  0.19551612  0.65691715  0.30386003     0.63300
H1207       H  0.25466069  0.67223084  0.26787719     0.12700
C1208       C  0.27986075  0.59745567  0.33705002     0.55400
H1209       H  0.22458897  0.58773763  0.37600464     0.08500
C1210       C  0.14969057  0.56966616  0.35616695    -0.05300
C1211       C  0.12031133  0.55507442  0.37978131    -0.06000
C1212       C  0.11718019  0.57129669  0.41397065    -0.15600
C1213       C  0.14428898  0.60426535  0.42387214    -0.01200
C1214       C  0.17365156  0.61907159  0.39980790    -0.08800
C1215       C  0.15213436  0.54981185  0.32109227     0.65500
H1216       H  0.09975720  0.52999160  0.37234885     0.11000
C1217       C  0.14220082  0.62418706  0.45904982     0.63900
H1218       H  0.19477132  0.64376404  0.40740687     0.08300
F1219       F  0.26306589  0.57051431  0.36339303    -0.19100
F1220       F  0.31083879  0.61913379  0.35335158    -0.15400
F1221       F  0.28347357  0.58420787  0.30182758    -0.18900
F1222       F  0.19389425  0.67440650  0.33673292    -0.22200
F1223       F  0.16354847  0.63093753  0.29468678    -0.23700
F1224       F  0.20741301  0.67921543  0.27181824    -0.17700
F1225       F  0.14213599  0.60847567  0.49439267    -0.20200
F1226       F  0.11319147  0.62589963  0.45654982    -0.21300
F1227       F  0.16914945  0.65720544  0.45993970    -0.18500
F1228       F  0.12187317  0.52046280  0.31359891    -0.18600
F1229       F  0.17575859  0.54050417  0.32907752    -0.22400
F1230       F  0.16146462  0.56955822  0.28696061    -0.24100
C1231       C  0.39612185  0.55488527  0.12975524    -0.10900
C1232       C  0.40612623  0.58889774  0.12086327     0.11700
C1233       C  0.43075047  0.60610696  0.09080917    -0.02700
C1234       C  0.44398137  0.58836515  0.07014534    -0.05400
C1235       C  0.43477571  0.55465187  0.07980705    -0.16200
C1236       C  0.41014336  0.53744586  0.11000051     0.02700
C1237       C  0.39285055  0.60672015  0.14626205     0.12700
C1238       C  0.44395502  0.64347516  0.08158708     0.63300
H1239       H  0.46290084  0.60129425  0.04729184     0.12700
C1240       C  0.39841136  0.50075329  0.12126086     0.55400
H1241       H  0.37784098  0.54237829  0.15335728     0.08500
C1242       C  0.36135126  0.60416954  0.13989354    -0.05300
C1243       C  0.35068753  0.62127532  0.16620611    -0.06000
C1244       C  0.37029432  0.64086402  0.19881240    -0.15600
C1245       C  0.40287438  0.64473709  0.20331495    -0.01200
C1246       C  0.41264189  0.62649015  0.17803852    -0.08800
C1247       C  0.33878655  0.58280276  0.10599800     0.65500
H1248       H  0.32604956  0.61821933  0.16237864     0.11000
C1249       C  0.42971038  0.66862801  0.23208750     0.63900
H1250       H  0.43682928  0.62848204  0.18252345     0.08300
F1251       F  0.37103581  0.48748034  0.14678666    -0.19100
F1252       F  0.42396798  0.49894550  0.14034417    -0.15400
F1253       F  0.38911137  0.48068348  0.08735876    -0.18900
F1254       F  0.46087876  0.66307712  0.11433062    -0.22200
F1255       F  0.41773044  0.64868814  0.07247703    -0.23700
F1256       F  0.46593895  0.65462443  0.04951132    -0.17700
F1257       F  0.43698348  0.64992052  0.25853833    -0.20200
F1258       F  0.42079634  0.68858606  0.25328647    -0.21300
F1259       F  0.45855397  0.69020040  0.21091219    -0.18500
F1260       F  0.31008067  0.58511669  0.10352809    -0.18600
F1261       F  0.32920116  0.54900391  0.11186193    -0.22400
F1262       F  0.35567009  0.59362614  0.07002642    -0.24100
C1263       C  0.37527641  0.58549750  0.30763142    -0.10900
C1264       C  0.39789060  0.60400731  0.33816210     0.11700
C1265       C  0.40470762  0.63745544  0.34639940    -0.02700
C1266       C  0.38824930  0.65100828  0.32396266    -0.05400
C1267       C  0.36610891  0.63291024  0.29251135    -0.16200
C1268       C  0.35852602  0.59872392  0.28527895     0.02700
C1269       C  0.41423894  0.58770312  0.36065063     0.12700
C1270       C  0.43018323  0.65917392  0.37788637     0.63300
H1271       H  0.39387897  0.67680870  0.32962167     0.12700
C1272       C  0.33236371  0.57392826  0.25619634     0.55400
H1273       H  0.37013775  0.55986794  0.30161490     0.08500
C1274       C  0.39828292  0.56521116  0.39317314    -0.05300
C1275       C  0.41545454  0.55124493  0.41334979    -0.06000
C1276       C  0.44739033  0.55783359  0.40115904    -0.15600
C1277       C  0.46299681  0.57979356  0.36796161    -0.01200
C1278       C  0.44609532  0.59434914  0.34838175    -0.08800
C1279       C  0.36295247  0.55548185  0.40596196     0.65500
H1280       H  0.40364142  0.53429091  0.43845773     0.11000
C1281       C  0.49774561  0.58866509  0.35386149     0.63900
H1282       H  0.45761816  0.61110036  0.32303817     0.08300
F1283       F  0.31012377  0.54447130  0.27643835    -0.19100
F1284       F  0.34798717  0.56548687  0.22683459    -0.15400
F1285       F  0.31383962  0.58627556  0.23825776    -0.18900
F1286       F  0.46148526  0.66471612  0.36720393    -0.22200
F1287       F  0.42124822  0.64286673  0.41444829    -0.23700
F1288       F  0.43248917  0.69056740  0.38213283    -0.17700
F1289       F  0.50983218  0.61342741  0.32439942    -0.20200
F1290       F  0.49674831  0.56001958  0.33832156    -0.21300
F1291       F  0.51991389  0.60089479  0.38552234    -0.18500
F1292       F  0.35238147  0.53413701  0.43888896    -0.18600
F1293       F  0.34085060  0.53868936  0.37512786    -0.22400
F1294       F  0.36159621  0.58429439  0.41565997    -0.24100
C1295       C  0.38064811  0.79874815  0.18790057    -0.10900
C1296       C  0.40068131  0.80025586  0.15559246     0.11700
C1297       C  0.40432863  0.77170564  0.14764794    -0.02700
C1298       C  0.38815520  0.74289174  0.17287787    -0.05400
C1299       C  0.36795760  0.74113942  0.20552722    -0.16200
C1300       C  0.36291428  0.76935571  0.21186339     0.02700
C1301       C  0.41728059  0.83210490  0.13067408     0.12700
C1302       C  0.42538065  0.77172991  0.11274022     0.63300
H1303       H  0.39192359  0.72155047  0.16776076     0.12700
C1304       C  0.33819162  0.77026180  0.24108264     0.55400
H1305       H  0.37785693  0.82065790  0.19366587     0.08500
C1306       C  0.39959688  0.83947346  0.10150019    -0.05300
C1307       C  0.41679444  0.87026725  0.07959824    -0.06000
C1308       C  0.45051745  0.89461027  0.08720271    -0.15600
C1309       C  0.46801098  0.88731762  0.11671970    -0.01200
C1310       C  0.45112818  0.85610956  0.13776373    -0.08800
C1311       C  0.36248606  0.81523761  0.09420611     0.65500
H1312       H  0.40366947  0.87610962  0.05707529     0.11000
C1313       C  0.50430674  0.91256202  0.12625475     0.63900
H1314       H  0.46408133  0.85045103  0.16070250     0.08300
F1315       F  0.31856139  0.73993696  0.26074300    -0.19100
F1316       F  0.31684917  0.77787757  0.22050154    -0.15400
F1317       F  0.35545354  0.79558377  0.26897408    -0.18900
F1318       F  0.45850954  0.79663224  0.11826939    -0.22200
F1319       F  0.41390905  0.77817412  0.07763095    -0.23700
F1320       F  0.42399527  0.74073728  0.10873680    -0.17700
F1321       F  0.50612006  0.94063559  0.14461514    -0.20200
F1322       F  0.52320232  0.92250114  0.09153355    -0.21300
F1323       F  0.51805103  0.89890527  0.15170052    -0.18500
F1324       F  0.35062831  0.82586932  0.06274357    -0.18600
F1325       F  0.34435541  0.81345732  0.12792590    -0.22400
F1326       F  0.35680098  0.78305509  0.08540616    -0.24100
C1327       C  0.41306616  0.79562225  0.32200967    -0.10900
C1328       C  0.39206616  0.79542981  0.35235340     0.11700
C1329       C  0.35982402  0.76627243  0.35700568    -0.02700
C1330       C  0.35010939  0.73801926  0.33148747    -0.05400
C1331       C  0.37078091  0.73824550  0.30017857    -0.16200
C1332       C  0.40359013  0.76756274  0.29642999     0.02700
C1333       C  0.40489977  0.82630126  0.37860230     0.12700
C1334       C  0.33532143  0.76553245  0.38785682     0.63300
H1335       H  0.32519457  0.71600273  0.33444496     0.12700
C1336       C  0.43065910  0.77114541  0.26784375     0.55400
H1337       H  0.43773350  0.81806390  0.31868250     0.08500
C1338       C  0.42646694  0.83185326  0.41135845    -0.05300
C1339       C  0.43909509  0.86234241  0.43359536    -0.06000
C1340       C  0.43186299  0.88795729  0.42338393    -0.15600
C1341       C  0.40985757  0.88212638  0.39086838    -0.01200
C1342       C  0.39684428  0.85138910  0.36903606    -0.08800
C1343       C  0.43691161  0.80605755  0.42196401     0.65500
H1344       H  0.45593557  0.86704199  0.45832179     0.11000
C1345       C  0.39941934  0.90782409  0.37980252     0.63900
H1346       H  0.38062734  0.84689425  0.34368885     0.08300
F1347       F  0.45913545  0.77854003  0.28922667    -0.19100
F1348       F  0.43853689  0.79763870  0.24160326    -0.15400
F1349       F  0.42163298  0.74223137  0.24623723    -0.18900
F1350       F  0.32774052  0.79059819  0.37917918    -0.22200
F1351       F  0.34925425  0.77125658  0.42551461    -0.23700
F1352       F  0.30563388  0.73450659  0.38840977    -0.17700
F1353       F  0.42655915  0.93700331  0.36454772    -0.20200
F1354       F  0.38732999  0.91603211  0.41325820    -0.21300
F1355       F  0.37438663  0.89513348  0.35124677    -0.18500
F1356       F  0.45636798  0.81524084  0.45608833    -0.18600
F1357       F  0.45543701  0.80360826  0.39101824    -0.22400
F1358       F  0.40890611  0.77442939  0.42851532    -0.24100
loop_ 
_geom_bond_atom_site_label_1 
_geom_bond_atom_site_label_2 
_geom_bond_distance 
_geom_bond_site_symmetry_2 
_ccdc_geom_bond_type 
C1            H2   1.107       .  S
C1            C7   1.554       .  S
C1            C6   1.554       .  S
C1            C5   1.558       .  S
C3            H4   1.104       .  S
C3            C9   1.559       .  S
C3            C8   1.556       .  S
C3           C10   1.553       .  S
C5            C8   1.384       .  D
C5         C1244   1.523       .  S
C6            C9   1.385       .  D
C6         C1299   1.517       .  S
C7           C10   1.389       .  D
C7         C1180   1.517       .  S
C8         C1267   1.515       .  S
C9         C1331   1.521       .  S
C10        C1203   1.522       .  S
C11          C12   1.413       .  A
C11          C16   1.399       .  A
C11        C1139   1.478       .  S
C12          C13   1.393       .  A
C12        C1107   1.477       .  S
C13          C14   1.395       .  A
C13          H18   1.082       .  S
C14          C15   1.415       .  A
C14        C1052   1.471       .  S
C15          C16   1.398       .  A
C15        C1075   1.485       .  S
C16          H17   1.082       .  S
C19          C20   1.414       .  A
C19          C24   1.401       .  A
C19         C947   1.481       .  S
C20          C21   1.401       .  A
C20        C1011   1.480       .  S
C21          C22   1.400       .  A
C21          H26   1.085       .  S
C22          C23   1.414       .  A
C22         C979   1.482       .  S
C23          C24   1.399       .  A
C23         C915   1.483       .  S
C24          H25   1.084       .  S
C27          C28   1.415       .  A
C27          C32   1.395       .  A
C27         C851   1.477       .  S
C28          C29   1.401       .  A
C28         C892   1.484       .  S
C29          C30   1.402       .  A
C29          H34   1.083       .  S
C30          C31   1.411       .  A
C30         C828   1.475       .  S
C31          C32   1.393       .  A
C31         C787   1.473       .  S
C32          H33   1.085       .  S
O35          C51   1.276       .  A
O35         Zn41   2.014       .  S
C36        C1020   1.475       .  S
C36          O52   1.275       .  A
C36          O49   1.271       .  A
O37          C50   1.276       .  A
O37         Cd44   2.087       .  S
O38          C56   1.274       .  A
O38         Cd47   2.050   1_554  S
O39          C53   1.275       .  A
O39         Cd43   2.100       .  S
O40          C51   1.271       .  A
O40         Cd43   2.042   1_455  S
Zn41         O52   2.020       .  S
Zn41         O54   2.051   1_556  S
Zn41         O46   1.945   1_556  S
O42          C53   1.277       .  A
O42         Cd47   2.089       .  S
Cd43         O45   2.059   1_556  S
Cd43         O46   2.000   1_656  S
Cd44         O48   2.068   1_455  S
Cd44         O57   2.060   1_455  S
Cd44         O46   1.999       .  S
O45          C55   1.276       .  A
O46         Cd47   1.994   1_454  S
Cd47         O49   2.053   1_655  S
O48          C55   1.273       .  A
C50        C1171   1.512       .  S
C50          O54   1.275       .  A
C51        C1148   1.457       .  S
C53         C755   1.507       .  S
C55         C723   1.496       .  S
C56         C819   1.480       .  S
C56          O57   1.273       .  A
O58          C74   1.277       .  A
O58         Zn64   2.026       .  S
C59        C1116   1.468       .  S
C59          O75   1.277       .  A
C59          O72   1.270       .  A
O60          C73   1.276       .  A
O60         Cd67   2.088       .  S
O61          C79   1.269       .  A
O61         Cd70   2.041       .  S
O62          C76   1.278       .  A
O62         Cd66   2.109       .  S
O63          C74   1.273   1_655  A
O63         Cd66   2.061       .  S
Zn64         O75   2.033       .  S
Zn64         O77   2.070       .  S
Zn64         O69   1.953       .  S
O65          C76   1.273       .  A
O65         Cd70   2.086       .  S
Cd66         O68   2.055       .  S
Cd66         O69   2.004   1_655  S
Cd67         O71   2.062   1_455  S
Cd67         O80   2.074   1_455  S
Cd67         O69   2.004       .  S
O68          C78   1.276       .  A
O69         Cd70   1.992   1_455  S
Cd70         O72   2.038   1_655  S
O71          C78   1.273       .  A
C73        C1212   1.507       .  S
C73          O77   1.278       .  A
C74         C956   1.467       .  S
C76         C700   1.508       .  S
C78         C796   1.484       .  S
C79         C659   1.480       .  S
C79          O80   1.276       .  A
C81          C82   1.416       .  A
C81          C86   1.399       .  A
C81         C668   1.486       .  S
C82          C83   1.398       .  A
C82         C732   1.475       .  S
C83          C84   1.397       .  A
C83          H88   1.085       .  S
C84          C85   1.413       .  A
C84         C627   1.479       .  S
C85          C86   1.401       .  A
C85         C595   1.475       .  S
C86          H87   1.082       .  S
C89          C90   1.416       .  A
C89          C94   1.400       .  A
C89         C540   1.483       .  S
C90          C91   1.400       .  A
C90         C563   1.484       .  S
C91          C92   1.402       .  A
C91          H96   1.085       .  S
C92          C93   1.419       .  A
C92         C476   1.486       .  S
C93          C94   1.401       .  A
C93         C499   1.486       .  S
C94          H95   1.085       .  S
C97          C98   1.418       .  A
C97         C102   1.392       .  A
C97         C371   1.477       .  S
C98          C99   1.402       .  A
C98         C435   1.488       .  S
C99         C100   1.403       .  A
C99         H104   1.079       .  S
C100        C101   1.415       .  A
C100        C403   1.486       .  S
C101        C102   1.392       .  A
C101        C339   1.476       .  S
C102        H103   1.083       .  S
O105        C121   1.274       .  A
O105       Zn111   2.003       .  S
C106        C924   1.472       .  S
C106        O122   1.275       .  A
C106        O119   1.273   1_565  A
O107        C120   1.274       .  A
O107       Cd114   2.090       .  S
O108        C126   1.277       .  A
O108       Cd117   2.058       .  S
O109        C123   1.275       .  A
O109       Cd113   2.093       .  S
O110        C121   1.271       .  A
O110       Cd113   2.047   1_565  S
Zn111       O122   2.006       .  S
Zn111       O124   2.069       .  S
Zn111       O116   1.946   1_565  S
O112        C123   1.278       .  A
O112       Cd117   2.112       .  S
Cd113       O115   2.047       .  S
Cd113       O116   1.995       .  S
Cd114       O118   2.069   1_565  S
Cd114       O127   2.062   1_565  S
Cd114       O116   2.004   1_565  S
O115        C125   1.271       .  A
O116       Cd117   2.006       .  S
Cd117       O119   2.064       .  S
O118        C125   1.276       .  A
C120       C1340   1.501       .  S
C120        O124   1.277       .  A
C121        C380   1.469       .  S
C123        C316   1.503       .  S
C125        C604   1.484       .  S
C126        C531   1.483       .  S
C126        O127   1.274       .  A
O128        C144   1.269       .  A
O128       Zn134   1.975       .  S
C129        C348   1.459       .  S
C129        O145   1.272       .  A
C129        O142   1.271       .  A
O130        C143   1.275       .  A
O130       Cd137   2.101       .  S
O131        C149   1.275       .  A
O131       Cd140   2.052       .  S
O132        C146   1.275       .  A
O132       Cd136   2.099       .  S
O133        C144   1.272       .  A
O133       Cd136   2.044       .  S
Zn134       O145   1.994       .  S
Zn134       O147   2.048       .  S
Zn134       O139   1.939       .  S
O135        C146   1.277       .  A
O135       Cd140   2.102       .  S
Cd136       O138   2.048       .  S
Cd136       O139   1.998       .  S
Cd137       O141   2.074       .  S
Cd137       O150   2.056       .  S
Cd137       O139   2.003       .  S
O138        C148   1.272       .  A
O139       Cd140   2.000       .  S
Cd140       O142   2.050       .  S
O141        C148   1.276       .  A
C143       C1276   1.502       .  S
C143        O147   1.275       .  A
C144       C1043   1.453       .  S
C146        C284   1.506       .  S
C148        C508   1.474       .  S
C149        C860   1.470       .  S
C149        O150   1.273       .  A
O151        C167   1.269       .  A
O151       Zn157   1.990       .  S
C152        C444   1.469       .  S
C152        O168   1.273       .  A
C152        O165   1.273   1_565  A
O153        C166   1.276       .  A
O153       Cd160   2.108   1_565  S
O154        C172   1.278       .  A
O154       Cd163   2.081   1_554  S
O155        C169   1.277       .  A
O155       Cd159   2.100       .  S
O156        C167   1.276       .  A
O156       Cd159   2.077   1_565  S
Zn157       O168   1.989       .  S
Zn157       O170   2.051   1_556  S
Zn157       O162   1.941   1_565  S
O158        C169   1.278       .  A
O158       Cd163   2.107       .  S
Cd159       O161   2.060   1_556  S
Cd159       O162   2.010       .  S
Cd160       O164   2.064       .  S
Cd160       O173   2.060       .  S
Cd160       O162   2.000   1_554  S
O161        C171   1.273       .  A
O162       Cd163   2.014       .  S
Cd163       O165   2.066       .  S
O164        C171   1.276       .  A
C166       C1308   1.500       .  S
C166        O170   1.275       .  A
C167        C988   1.483       .  S
C169        C252   1.499       .  S
C171        C572   1.475       .  S
C172        C636   1.491       .  S
C172        O173   1.273       .  A
O174        C190   1.274       .  A
O174       Zn180   2.019       .  S
C175       C1084   1.467       .  S
C175        O191   1.275       .  A
C175        O188   1.272       .  A
O176        C189   1.275       .  A
O176       Cd183   2.092       .  S
O177        C195   1.277       .  A
O177       Cd186   2.073   1_554  S
O178        C192   1.276       .  A
O178       Cd182   2.096       .  S
O179        C190   1.273       .  A
O179       Cd182   2.062       .  S
Zn180       O191   2.021       .  S
Zn180       O193   2.058   1_556  S
Zn180       O185   1.951   1_556  S
O181        C192   1.275       .  A
O181       Cd186   2.094       .  S
Cd182       O184   2.049   1_556  S
Cd182       O185   2.001   1_556  S
Cd183       O187   2.088       .  S
Cd183       O196   2.075       .  S
Cd183       O185   2.012       .  S
O184        C194   1.276       .  A
O185       Cd186   2.005   1_554  S
Cd186       O188   2.056       .  S
O187        C194   1.276       .  A
C189       C1235   1.500       .  S
C189        O193   1.277       .  A
C190        C412   1.478       .  S
C192        C220   1.496       .  S
C194        C883   1.492       .  S
C195        C467   1.489       .  S
C195        O196   1.275       .  A
C197        H198   1.101       .  S
C197        C203   1.559       .  S
C197        C202   1.551       .  S
C197        C201   1.554       .  S
C199        H200   1.101       .  S
C199        C205   1.549       .  S
C199        C204   1.558       .  S
C199        C206   1.553       .  S
C201        C204   1.386       .  D
C201        C275   1.521       .  S
C202        C205   1.383       .  D
C202        C307   1.521       .  S
C203        C206   1.389       .  D
C203        C691   1.512       .  S
C204        C211   1.516       .  S
C205        C243   1.507       .  S
C206        C764   1.531       .  S
C207        C208   1.397       .  A
C207        C212   1.408       .  A
C207        H217   1.085       .  S
C208        C209   1.416       .  A
C208        C213   1.498       .  S
C209        C210   1.415       .  A
C209        C214   1.517       .  S
C210        C211   1.409       .  A
C210        H215   1.082       .  S
C211        C212   1.432       .  A
C212        C216   1.514       .  S
C213        C218   1.419       .  A
C213        C222   1.403       .  A
C214        F230   1.383       .  S
C214        F231   1.382       .  S
C214        F232   1.384       .  S
C216        F227   1.384       .  S
C216        F228   1.383       .  S
C216        F229   1.367       .  S
C218        C219   1.414       .  A
C218        C223   1.519       .  S
C219        C220   1.406       .  A
C219        H224   1.083       .  S
C220        C221   1.422       .  A
C221        C222   1.413       .  A
C221        C225   1.519       .  S
C222        H226   1.083       .  S
C223        F236   1.384       .  S
C223        F237   1.383       .  S
C223        F238   1.382       .  S
C225        F233   1.385       .  S
C225        F234   1.384       .  S
C225        F235   1.382       .  S
C239        C240   1.403       .  A
C239        C244   1.411       .  A
C239        H249   1.084       .  S
C240        C241   1.420       .  A
C240        C245   1.504       .  S
C241        C242   1.415       .  A
C241        C246   1.518       .  S
C242        C243   1.406       .  A
C242        H247   1.083       .  S
C243        C244   1.422       .  A
C244        C248   1.515       .  S
C245        C250   1.420       .  A
C245        C254   1.405       .  A
C246        F262   1.382       .  S
C246        F263   1.383       .  S
C246        F264   1.384       .  S
C248        F259   1.384       .  S
C248        F260   1.382       .  S
C248        F261   1.378       .  S
C250        C251   1.414       .  A
C250        C255   1.519       .  S
C251        C252   1.406       .  A
C251        H256   1.083       .  S
C252        C253   1.421       .  A
C253        C254   1.416       .  A
C253        C257   1.518       .  S
C254        H258   1.083       .  S
C255        F268   1.384       .  S
C255        F269   1.382       .  S
C255        F270   1.383       .  S
C257        F265   1.385       .  S
C257        F266   1.383       .  S
C257        F267   1.382       .  S
C271        C272   1.401       .  A
C271        C276   1.413       .  A
C271        H281   1.084       .  S
C272        C273   1.415       .  A
C272        C277   1.502       .  S
C273        C274   1.412       .  A
C273        C278   1.519       .  S
C274        C275   1.412       .  A
C274        H279   1.080       .  S
C275        C276   1.430       .  A
C276        C280   1.517       .  S
C277        C282   1.418       .  A
C277        C286   1.403       .  A
C278        F294   1.382       .  S
C278        F295   1.382       .  S
C278        F296   1.385       .  S
C280        F291   1.385       .  S
C280        F292   1.382       .  S
C280        F293   1.372       .  S
C282        C283   1.414       .  A
C282        C287   1.519       .  S
C283        C284   1.409       .  A
C283        H288   1.083       .  S
C284        C285   1.425       .  A
C285        C286   1.415       .  A
C285        C289   1.518       .  S
C286        H290   1.083       .  S
C287        F300   1.384       .  S
C287        F301   1.382       .  S
C287        F302   1.382       .  S
C289        F297   1.385       .  S
C289        F298   1.383       .  S
C289        F299   1.383       .  S
C303        C304   1.400       .  A
C303        C308   1.415       .  A
C303        H313   1.083       .  S
C304        C305   1.416       .  A
C304        C309   1.504       .  S
C305        C306   1.416       .  A
C305        C310   1.518       .  S
C306        C307   1.411       .  A
C306        H311   1.082       .  S
C307        C308   1.431       .  A
C308        C312   1.519       .  S
C309        C314   1.420       .  A
C309        C318   1.404       .  A
C310        F326   1.382       .  S
C310        F327   1.382       .  S
C310        F328   1.385       .  S
C312        F323   1.385       .  S
C312        F324   1.378       .  S
C312        F325   1.373       .  S
C314        C315   1.416       .  A
C314        C319   1.520       .  S
C315        C316   1.408       .  A
C315        H320   1.083       .  S
C316        C317   1.423       .  A
C317        C318   1.415       .  A
C317        C321   1.519       .  S
C318        H322   1.083       .  S
C319        F332   1.384       .  S
C319        F333   1.382       .  S
C319        F334   1.382       .  S
C321        F329   1.384       .  S
C321        F330   1.382       .  S
C321        F331   1.385       .  S
C335        C336   1.397       .  A
C335        C340   1.398       .  A
C335        H345   1.084       .  S
C336        C337   1.412       .  A
C336        C341   1.469       .  S
C337        C338   1.401       .  A
C337        C342   1.518       .  S
C338        C339   1.403       .  A
C338        H343   1.083       .  S
C339        C340   1.423       .  A
C340        C344   1.526       .  S
C341        C346   1.417       .  A
C341        C350   1.400       .  A
C342        F358   1.382       .  S
C342        F359   1.383       .  S
C342        F360   1.384       .  S
C344        F355   1.385       .  S
C344        F356   1.380       .  S
C344        F357   1.380       .  S
C346        C347   1.400       .  A
C346        C351   1.522       .  S
C347        C348   1.399       .  A
C347        H352   1.084       .  S
C348        C349   1.413       .  A
C349        C350   1.401       .  A
C349        C353   1.518       .  S
C350        H354   1.083       .  S
C351        F364   1.384       .  S
C351        F365   1.381       .  S
C351        F366   1.383       .  S
C353        F361   1.383       .  S
C353        F362   1.383       .  S
C353        F363   1.384       .  S
C367        C368   1.396       .  A
C367        C372   1.398       .  A
C367        H377   1.085       .  S
C368        C369   1.413       .  A
C368        C373   1.472       .  S
C369        C370   1.403       .  A
C369        C374   1.518       .  S
C370        C371   1.403       .  A
C370        H375   1.083       .  S
C371        C372   1.420       .  A
C372        C376   1.517       .  S
C373        C378   1.416       .  A
C373        C382   1.400       .  A
C374        F390   1.382       .  S
C374        F391   1.383       .  S
C374        F392   1.384       .  S
C376        F387   1.384       .  S
C376        F388   1.380       .  S
C376        F389   1.373       .  S
C378        C379   1.399       .  A
C378        C383   1.522       .  S
C379        C380   1.401       .  A
C379        H384   1.083       .  S
C380        C381   1.418       .  A
C381        C382   1.405       .  A
C381        C385   1.519       .  S
C382        H386   1.083       .  S
C383        F396   1.385       .  S
C383        F397   1.382       .  S
C383        F398   1.382       .  S
C385        F393   1.385   1_565  S
C385        F394   1.384       .  S
C385        F395   1.382   1_565  S
C399        C400   1.402       .  A
C399        C404   1.405       .  A
C399        H409   1.085       .  S
C400        C401   1.415       .  A
C400        C405   1.478       .  S
C401        C402   1.400       .  A
C401        C406   1.522       .  S
C402        C403   1.403       .  A
C402        H407   1.079       .  S
C403        C404   1.418       .  A
C404        C408   1.516       .  S
C405        C410   1.413       .  A
C405        C414   1.400       .  A
C406        F422   1.382       .  S
C406        F423   1.382       .  S
C406        F424   1.384       .  S
C408        F419   1.384       .  S
C408        F420   1.383       .  S
C408        F421   1.383       .  S
C410        C411   1.408       .  A
C410        C415   1.519       .  S
C411        C412   1.407       .  A
C411        H416   1.083       .  S
C412        C413   1.418       .  A
C413        C414   1.402       .  A
C413        C417   1.520       .  S
C414        H418   1.084       .  S
C415        F428   1.385       .  S
C415        F429   1.382       .  S
C415        F430   1.382       .  S
C417        F425   1.384       .  S
C417        F426   1.382       .  S
C417        F427   1.385       .  S
C431        C432   1.398       .  A
C431        C436   1.404       .  A
C431        H441   1.083       .  S
C432        C433   1.410       .  A
C432        C437   1.473       .  S
C433        C434   1.401       .  A
C433        C438   1.519       .  S
C434        C435   1.406       .  A
C434        H439   1.082       .  S
C435        C436   1.426       .  A
C436        C440   1.526       .  S
C437        C442   1.414       .  A
C437        C446   1.401       .  A
C438        F454   1.382       .  S
C438        F455   1.383       .  S
C438        F456   1.385       .  S
C440        F451   1.385       .  S
C440        F452   1.381       .  S
C440        F453   1.379       .  S
C442        C443   1.399       .  A
C442        C447   1.519       .  S
C443        C444   1.402       .  A
C443        H448   1.084       .  S
C444        C445   1.416       .  A
C445        C446   1.405       .  A
C445        C449   1.518       .  S
C446        H450   1.083       .  S
C447        F460   1.385       .  S
C447        F461   1.381       .  S
C447        F462   1.382       .  S
C449        F457   1.385       .  S
C449        F458   1.384       .  S
C449        F459   1.382   1_565  S
C463        C464   1.399       .  A
C463        C468   1.406       .  A
C463        H473   1.083       .  S
C464        C465   1.412       .  A
C464        C469   1.480       .  S
C465        C466   1.406       .  A
C465        C470   1.520       .  S
C466        C467   1.409       .  A
C466        H471   1.083       .  S
C467        C468   1.423       .  A
C468        C472   1.520       .  S
C469        C474   1.414       .  A
C469        C478   1.403       .  A
C470        F486   1.382       .  S
C470        F487   1.382       .  S
C470        F488   1.384       .  S
C472        F483   1.385       .  S
C472        F484   1.383       .  S
C472        F485   1.383       .  S
C474        C475   1.399       .  A
C474        C479   1.522       .  S
C475        C476   1.405       .  A
C475        H480   1.083       .  S
C476        C477   1.418       .  A
C477        C478   1.407       .  A
C477        C481   1.516       .  S
C478        H482   1.084       .  S
C479        F492   1.385       .  S
C479        F493   1.382       .  S
C479        F494   1.382       .  S
C481        F489   1.383       .  S
C481        F490   1.381       .  S
C481        F491   1.384       .  S
C495        C496   1.400       .  A
C495        C500   1.405       .  A
C495        H505   1.085       .  S
C496        C497   1.412       .  A
C496        C501   1.475       .  S
C497        C498   1.400       .  A
C497        C502   1.521       .  S
C498        C499   1.406       .  A
C498        H503   1.081       .  S
C499        C500   1.422       .  A
C500        C504   1.519       .  S
C501        C506   1.412       .  A
C501        C510   1.399       .  A
C502        F518   1.382       .  S
C502        F519   1.382       .  S
C502        F520   1.385       .  S
C504        F515   1.384       .  S
C504        F516   1.384       .  S
C504        F517   1.381       .  S
C506        C507   1.406       .  A
C506        C511   1.518       .  S
C507        C508   1.405       .  A
C507        H512   1.083       .  S
C508        C509   1.419       .  A
C509        C510   1.402       .  A
C509        C513   1.520       .  S
C510        H514   1.084       .  S
C511        F524   1.385       .  S
C511        F525   1.383       .  S
C511        F526   1.382       .  S
C513        F521   1.382       .  S
C513        F522   1.383       .  S
C513        F523   1.385       .  S
C527        C528   1.400       .  A
C527        C532   1.407       .  A
C527        H537   1.083       .  S
C528        C529   1.412       .  A
C528        C533   1.474       .  S
C529        C530   1.400       .  A
C529        C534   1.522       .  S
C530        C531   1.407       .  A
C530        H535   1.083       .  S
C531        C532   1.424       .  A
C532        C536   1.521       .  S
C533        C538   1.412       .  A
C533        C542   1.401       .  A
C534        F550   1.382       .  S
C534        F551   1.382       .  S
C534        F552   1.385       .  S
C536        F547   1.384       .  S
C536        F548   1.385       .  S
C536        F549   1.383       .  S
C538        C539   1.400       .  A
C538        C543   1.520       .  S
C539        C540   1.407       .  A
C539        H544   1.083       .  S
C540        C541   1.418       .  A
C541        C542   1.403       .  A
C541        C545   1.516       .  S
C542        H546   1.085       .  S
C543        F556   1.385       .  S
C543        F557   1.382       .  S
C543        F558   1.382       .  S
C545        F553   1.383       .  S
C545        F554   1.380       .  S
C545        F555   1.384       .  S
C559        C560   1.400       .  A
C559        C564   1.404       .  A
C559        H569   1.085       .  S
C560        C561   1.412       .  A
C560        C565   1.476       .  S
C561        C562   1.400       .  A
C561        C566   1.521       .  S
C562        C563   1.406       .  A
C562        H567   1.081       .  S
C563        C564   1.421       .  A
C564        C568   1.519       .  S
C565        C570   1.412       .  A
C565        C574   1.400       .  A
C566        F582   1.382       .  S
C566        F583   1.382       .  S
C566        F584   1.385       .  S
C568        F579   1.384       .  S
C568        F580   1.383       .  S
C568        F581   1.380       .  S
C570        C571   1.403       .  A
C570        C575   1.519       .  S
C571        C572   1.405       .  A
C571        H576   1.083       .  S
C572        C573   1.420       .  A
C573        C574   1.404       .  A
C573        C577   1.521       .  S
C574        H578   1.083       .  S
C575        F588   1.385   1_545  S
C575        F589   1.382       .  S
C575        F590   1.382       .  S
C577        F585   1.382       .  S
C577        F586   1.384       .  S
C577        F587   1.385       .  S
C591        C592   1.400       .  A
C591        C596   1.403       .  A
C591        H601   1.085       .  S
C592        C593   1.413       .  A
C592        C597   1.470       .  S
C593        C594   1.397       .  A
C593        C598   1.522       .  S
C594        C595   1.402       .  A
C594        H599   1.081       .  S
C595        C596   1.416       .  A
C596        C600   1.514       .  S
C597        C602   1.410       .  A
C597        C606   1.396       .  A
C598        F614   1.383       .  S
C598        F615   1.381       .  S
C598        F616   1.385       .  S
C600        F611   1.382       .  S
C600        F612   1.384       .  S
C600        F613   1.380       .  S
C602        C603   1.403       .  A
C602        C607   1.519       .  S
C603        C604   1.409       .  A
C603        H608   1.083       .  S
C604        C605   1.425       .  A
C605        C606   1.402       .  A
C605        C609   1.521       .  S
C606        H610   1.084       .  S
C607        F620   1.384       .  S
C607        F621   1.383       .  S
C607        F622   1.381       .  S
C609        F617   1.385       .  S
C609        F618   1.384       .  S
C609        F619   1.383       .  S
C623        C624   1.400       .  A
C623        C628   1.403       .  A
C623        H633   1.085       .  S
C624        C625   1.414       .  A
C624        C629   1.479       .  S
C625        C626   1.403       .  A
C625        C630   1.520       .  S
C626        C627   1.405       .  A
C626        H631   1.083       .  S
C627        C628   1.419       .  A
C628        C632   1.518       .  S
C629        C634   1.414       .  A
C629        C638   1.396       .  A
C630        F646   1.382       .  S
C630        F647   1.382       .  S
C630        F648   1.385       .  S
C632        F643   1.383       .  S
C632        F644   1.383       .  S
C632        F645   1.380       .  S
C634        C635   1.406       .  A
C634        C639   1.520       .  S
C635        C636   1.408       .  A
C635        H640   1.083       .  S
C636        C637   1.427       .  A
C637        C638   1.404       .  A
C637        C641   1.518       .  S
C638        H642   1.084       .  S
C639        F652   1.384       .  S
C639        F653   1.382       .  S
C639        F654   1.382       .  S
C641        F649   1.382   1_545  S
C641        F650   1.383       .  S
C641        F651   1.385       .  S
C655        C656   1.398       .  A
C655        C660   1.403       .  A
C655        H665   1.084       .  S
C656        C657   1.414       .  A
C656        C661   1.475       .  S
C657        C658   1.403       .  A
C657        C662   1.520       .  S
C658        C659   1.405       .  A
C658        H663   1.083       .  S
C659        C660   1.424       .  A
C660        C664   1.522       .  S
C661        C666   1.411       .  A
C661        C670   1.397       .  A
C662        F678   1.382       .  S
C662        F679   1.382       .  S
C662        F680   1.385       .  S
C664        F675   1.385       .  S
C664        F676   1.383       .  S
C664        F677   1.384   1_655  S
C666        C667   1.406       .  A
C666        C671   1.518       .  S
C667        C668   1.405       .  A
C667        H672   1.081       .  S
C668        C669   1.424       .  A
C669        C670   1.401       .  A
C669        C673   1.523       .  S
C670        H674   1.084       .  S
C671        F684   1.384       .  S
C671        F685   1.382       .  S
C671        F686   1.382       .  S
C673        F681   1.381       .  S
C673        F682   1.377       .  S
C673        F683   1.385       .  S
C687        C688   1.398       .  A
C687        C692   1.407       .  A
C687        H697   1.085       .  S
C688        C689   1.417       .  A
C688        C693   1.499       .  S
C689        C690   1.414       .  A
C689        C694   1.518       .  S
C690        C691   1.410       .  A
C690        H695   1.083       .  S
C691        C692   1.430       .  A
C692        C696   1.514       .  S
C693        C698   1.418       .  A
C693        C702   1.401       .  A
C694        F710   1.382       .  S
C694        F711   1.382       .  S
C694        F712   1.385       .  S
C696        F707   1.384       .  S
C696        F708   1.379       .  S
C696        F709   1.367       .  S
C698        C699   1.414       .  A
C698        C703   1.520       .  S
C699        C700   1.409       .  A
C699        H704   1.083       .  S
C700        C701   1.428       .  A
C701        C702   1.414       .  A
C701        C705   1.518       .  S
C702        H706   1.083       .  S
C703        F716   1.385       .  S
C703        F717   1.382       .  S
C703        F718   1.382       .  S
C705        F713   1.385       .  S
C705        F714   1.382       .  S
C705        F715   1.383       .  S
C719        C720   1.399       .  A
C719        C724   1.408       .  A
C719        H729   1.083       .  S
C720        C721   1.414       .  A
C720        C725   1.473       .  S
C721        C722   1.399       .  A
C721        C726   1.522       .  S
C722        C723   1.410       .  A
C722        H727   1.084       .  S
C723        C724   1.429       .  A
C724        C728   1.521       .  S
C725        C730   1.412       .  A
C725        C734   1.398       .  A
C726        F742   1.383       .  S
C726        F743   1.381       .  S
C726        F744   1.384       .  S
C728        F739   1.385       .  S
C728        F740   1.383       .  S
C728        F741   1.383   1_655  S
C730        C731   1.405       .  A
C730        C735   1.516       .  S
C731        C732   1.404       .  A
C731        H736   1.083       .  S
C732        C733   1.420       .  A
C733        C734   1.398       .  A
C733        C737   1.519       .  S
C734        H738   1.085       .  S
C735        F748   1.385       .  S
C735        F749   1.383       .  S
C735        F750   1.382       .  S
C737        F745   1.383       .  S
C737        F746   1.378       .  S
C737        F747   1.384       .  S
C751        C752   1.405       .  A
C751        C756   1.418       .  A
C751        H761   1.083       .  S
C752        C753   1.419       .  A
C752        C757   1.506       .  S
C753        C754   1.411       .  A
C753        C758   1.518       .  S
C754        C755   1.408       .  A
C754        H759   1.083       .  S
C755        C756   1.426       .  A
C756        C760   1.519       .  S
C757        C762   1.416       .  A
C757        C766   1.399       .  A
C758        F774   1.382       .  S
C758        F775   1.381       .  S
C758        F776   1.385       .  S
C760        F771   1.383       .  S
C760        F772   1.385       .  S
C760        F773   1.384       .  S
C762        C763   1.417       .  A
C762        C767   1.518       .  S
C763        C764   1.414       .  A
C763        H768   1.081       .  S
C764        C765   1.435       .  A
C765        C766   1.415       .  A
C765        C769   1.521       .  S
C766        H770   1.083       .  S
C767        F780   1.384       .  S
C767        F781   1.382       .  S
C767        F782   1.382       .  S
C769        F777   1.381       .  S
C769        F778   1.374       .  S
C769        F779   1.385       .  S
C783        C784   1.399       .  A
C783        C788   1.400       .  A
C783        H793   1.085       .  S
C784        C785   1.412       .  A
C784        C789   1.474       .  S
C785        C786   1.403       .  A
C785        C790   1.519       .  S
C786        C787   1.402       .  A
C786        H791   1.081       .  S
C787        C788   1.418       .  A
C788        C792   1.519       .  S
C789        C794   1.412       .  A
C789        C798   1.399       .  A
C790        F806   1.382       .  S
C790        F807   1.382       .  S
C790        F808   1.384       .  S
C792        F803   1.383       .  S
C792        F804   1.384       .  S
C792        F805   1.379       .  S
C794        C795   1.400       .  A
C794        C799   1.522       .  S
C795        C796   1.407       .  A
C795        H800   1.082       .  S
C796        C797   1.424       .  A
C797        C798   1.406       .  A
C797        C801   1.521       .  S
C798        H802   1.083       .  S
C799        F812   1.385       .  S
C799        F813   1.382       .  S
C799        F814   1.382       .  S
C801        F809   1.383       .  S
C801        F810   1.384   1_655  S
C801        F811   1.385   1_655  S
C815        C816   1.400       .  A
C815        C820   1.404       .  A
C815        H825   1.083       .  S
C816        C817   1.410       .  A
C816        C821   1.472       .  S
C817        C818   1.401       .  A
C817        C822   1.520       .  S
C818        C819   1.408       .  A
C818        H823   1.083       .  S
C819        C820   1.422       .  A
C820        C824   1.521       .  S
C821        C826   1.414       .  A
C821        C830   1.400       .  A
C822        F838   1.382       .  S
C822        F839   1.382       .  S
C822        F840   1.384       .  S
C824        F835   1.384       .  S
C824        F836   1.385       .  S
C824        F837   1.383       .  S
C826        C827   1.399       .  A
C826        C831   1.522       .  S
C827        C828   1.402       .  A
C827        H832   1.082       .  S
C828        C829   1.417       .  A
C829        C830   1.402       .  A
C829        C833   1.515       .  S
C830        H834   1.085       .  S
C831        F844   1.385       .  S
C831        F845   1.381       .  S
C831        F846   1.382       .  S
C833        F841   1.383       .  S
C833        F842   1.382       .  S
C833        F843   1.383       .  S
C847        C848   1.399       .  A
C847        C852   1.402       .  A
C847        H857   1.083       .  S
C848        C849   1.412       .  A
C848        C853   1.468       .  S
C849        C850   1.399       .  A
C849        C854   1.520       .  S
C850        C851   1.403       .  A
C850        H855   1.081       .  S
C851        C852   1.417       .  A
C852        C856   1.520       .  S
C853        C858   1.413       .  A
C853        C862   1.399       .  A
C854        F870   1.382       .  S
C854        F871   1.382       .  S
C854        F872   1.385       .  S
C856        F867   1.381       .  S
C856        F868   1.385       .  S
C856        F869   1.383       .  S
C858        C859   1.399       .  A
C858        C863   1.521       .  S
C859        C860   1.403       .  A
C859        H864   1.083       .  S
C860        C861   1.419       .  A
C861        C862   1.403       .  A
C861        C865   1.519       .  S
C862        H866   1.084       .  S
C863        F876   1.385       .  S
C863        F877   1.382       .  S
C863        F878   1.382       .  S
C865        F873   1.385       .  S
C865        F874   1.383       .  S
C865        F875   1.382       .  S
C879        C880   1.402       .  A
C879        C884   1.410       .  A
C879        H889   1.083       .  S
C880        C881   1.411       .  A
C880        C885   1.476       .  S
C881        C882   1.400       .  A
C881        C886   1.522       .  S
C882        C883   1.409       .  A
C882        H887   1.082       .  S
C883        C884   1.424       .  A
C884        C888   1.519       .  S
C885        C890   1.412       .  A
C885        C894   1.398       .  A
C886        F902   1.382       .  S
C886        F903   1.381       .  S
C886        F904   1.385       .  S
C888        F899   1.383       .  S
C888        F900   1.385       .  S
C888        F901   1.382       .  S
C890        C891   1.406       .  A
C890        C895   1.517       .  S
C891        C892   1.406       .  A
C891        H896   1.082       .  S
C892        C893   1.421       .  A
C893        C894   1.400       .  A
C893        C897   1.522       .  S
C894        H898   1.084       .  S
C895        F908   1.385       .  S
C895        F909   1.382       .  S
C895        F910   1.381       .  S
C897        F905   1.385       .  S
C897        F906   1.382       .  S
C897        F907   1.381       .  S
C911        C912   1.400       .  A
C911        C916   1.401       .  A
C911        H921   1.084       .  S
C912        C913   1.413       .  A
C912        C917   1.477       .  S
C913        C914   1.406       .  A
C913        C918   1.517       .  S
C914        C915   1.404       .  A
C914        H919   1.081       .  S
C915        C916   1.421       .  A
C916        C920   1.523       .  S
C917        C922   1.416       .  A
C917        C926   1.403       .  A
C918        F934   1.383       .  S
C918        F935   1.384       .  S
C918        F936   1.382       .  S
C920        F931   1.385       .  S
C920        F932   1.381       .  S
C920        F933   1.383       .  S
C922        C923   1.396       .  A
C922        C927   1.518       .  S
C923        C924   1.400       .  A
C923        H928   1.085       .  S
C924        C925   1.417       .  A
C925        C926   1.408       .  A
C925        C929   1.518       .  S
C926        H930   1.083       .  S
C927        F940   1.384       .  S
C927        F941   1.383       .  S
C927        F942   1.380       .  S
C929        F937   1.384       .  S
C929        F938   1.383       .  S
C929        F939   1.383   1_565  S
C943        C944   1.402       .  A
C943        C948   1.407       .  A
C943        H953   1.084       .  S
C944        C945   1.415       .  A
C944        C949   1.477       .  S
C945        C946   1.399       .  A
C945        C950   1.522       .  S
C946        C947   1.402       .  A
C946        H951   1.082       .  S
C947        C948   1.418       .  A
C948        C952   1.515       .  S
C949        C954   1.413       .  A
C949        C958   1.401       .  A
C950        F966   1.382       .  S
C950        F967   1.382       .  S
C950        F968   1.385       .  S
C952        F963   1.383       .  S
C952        F964   1.384       .  S
C952        F965   1.380       .  S
C954        C955   1.404       .  A
C954        C959   1.517       .  S
C955        C956   1.401       .  A
C955        H960   1.083       .  S
C956        C957   1.414       .  A
C957        C958   1.405       .  A
C957        C961   1.517       .  S
C958        H962   1.083       .  S
C959        F972   1.384       .  S
C959        F973   1.383       .  S
C959        F974   1.380       .  S
C961        F969   1.385       .  S
C961        F970   1.383       .  S
C961        F971   1.383       .  S
C975        C976   1.401       .  A
C975        C980   1.404       .  A
C975        H985   1.083       .  S
C976        C977   1.415       .  A
C976        C981   1.479       .  S
C977        C978   1.404       .  A
C977        C982   1.520       .  S
C978        C979   1.403       .  A
C978        H983   1.082       .  S
C979        C980   1.416       .  A
C980        C984   1.519       .  S
C981        C986   1.414       .  A
C981        C990   1.398       .  A
C982        F998   1.382       .  S
C982        F999   1.383       .  S
C982       F1000   1.385       .  S
C984        F995   1.384       .  S
C984        F996   1.381       .  S
C984        F997   1.382       .  S
C986        C987   1.406       .  A
C986        C991   1.519       .  S
C987        C988   1.406       .  A
C987        H992   1.083       .  S
C988        C989   1.425       .  A
C989        C990   1.403       .  A
C989        C993   1.523       .  S
C990        H994   1.083       .  S
C991       F1004   1.385   1_565  S
C991       F1005   1.382       .  S
C991       F1006   1.381       .  S
C993       F1001   1.385       .  S
C993       F1002   1.383       .  S
C993       F1003   1.383       .  S
C1007      C1008   1.400       .  A
C1007      C1012   1.404       .  A
C1007      H1017   1.085       .  S
C1008      C1009   1.413       .  A
C1008      C1013   1.477       .  S
C1009      C1010   1.403       .  A
C1009      C1014   1.521       .  S
C1010      C1011   1.405       .  A
C1010      H1015   1.082       .  S
C1011      C1012   1.421       .  A
C1012      C1016   1.520       .  S
C1013      C1018   1.414       .  A
C1013      C1022   1.400       .  A
C1014      F1030   1.382       .  S
C1014      F1031   1.382       .  S
C1014      F1032   1.384       .  S
C1016      F1027   1.383       .  S
C1016      F1028   1.383       .  S
C1016      F1029   1.380       .  S
C1018      C1019   1.405       .  A
C1018      C1023   1.520       .  S
C1019      C1020   1.405       .  A
C1019      H1024   1.083       .  S
C1020      C1021   1.419       .  A
C1021      C1022   1.404       .  A
C1021      C1025   1.520       .  S
C1022      H1026   1.084       .  S
C1023      F1036   1.385       .  S
C1023      F1037   1.382       .  S
C1023      F1038   1.382       .  S
C1025      F1033   1.382   1_455  S
C1025      F1034   1.384       .  S
C1025      F1035   1.385       .  S
C1039      C1040   1.399       .  A
C1039      C1044   1.397       .  A
C1039      H1049   1.084       .  S
C1040      C1041   1.411       .  A
C1040      C1045   1.459       .  S
C1041      C1042   1.399       .  A
C1041      C1046   1.521       .  S
C1042      C1043   1.401       .  A
C1042      H1047   1.084       .  S
C1043      C1044   1.413       .  A
C1044      C1048   1.520       .  S
C1045      C1050   1.409       .  A
C1045      C1054   1.396       .  A
C1046      F1062   1.383       .  S
C1046      F1063   1.381       .  S
C1046      F1064   1.384       .  S
C1048      F1059   1.384       .  S
C1048      F1060   1.383       .  S
C1048      F1061   1.383       .  S
C1050      C1051   1.397       .  A
C1050      C1055   1.519       .  S
C1051      C1052   1.403       .  A
C1051      H1056   1.082       .  S
C1052      C1053   1.425       .  A
C1053      C1054   1.397       .  A
C1053      C1057   1.528       .  S
C1054      H1058   1.084       .  S
C1055      F1068   1.384       .  S
C1055      F1069   1.382       .  S
C1055      F1070   1.381       .  S
C1057      F1065   1.385       .  S
C1057      F1066   1.382       .  S
C1057      F1067   1.381       .  S
C1071      C1072   1.397       .  A
C1071      C1076   1.401       .  A
C1071      H1081   1.084       .  S
C1072      C1073   1.414       .  A
C1072      C1077   1.477       .  S
C1073      C1074   1.407       .  A
C1073      C1078   1.518       .  S
C1074      C1075   1.404       .  A
C1074      H1079   1.083       .  S
C1075      C1076   1.420       .  A
C1076      C1080   1.517       .  S
C1077      C1082   1.417       .  A
C1077      C1086   1.402       .  A
C1078      F1094   1.382       .  S
C1078      F1095   1.381       .  S
C1078      F1096   1.385       .  S
C1080      F1091   1.378       .  S
C1080      F1092   1.385       .  S
C1080      F1093   1.377       .  S
C1082      C1083   1.407       .  A
C1082      C1087   1.520       .  S
C1083      C1084   1.402       .  A
C1083      H1088   1.083       .  S
C1084      C1085   1.412       .  A
C1085      C1086   1.402       .  A
C1085      C1089   1.518       .  S
C1086      H1090   1.084       .  S
C1087      F1100   1.385       .  S
C1087      F1101   1.382       .  S
C1087      F1102   1.381       .  S
C1089      F1097   1.384       .  S
C1089      F1098   1.383       .  S
C1089      F1099   1.383       .  S
C1103      C1104   1.402       .  A
C1103      C1108   1.405       .  A
C1103      H1113   1.084       .  S
C1104      C1105   1.411       .  A
C1104      C1109   1.471       .  S
C1105      C1106   1.397       .  A
C1105      C1110   1.523       .  S
C1106      C1107   1.402       .  A
C1106      H1111   1.073       .  S
C1107      C1108   1.417       .  A
C1108      C1112   1.517       .  S
C1109      C1114   1.415       .  A
C1109      C1118   1.398       .  A
C1110      F1126   1.382       .  S
C1110      F1127   1.382       .  S
C1110      F1128   1.384       .  S
C1112      F1123   1.383       .  S
C1112      F1124   1.384       .  S
C1112      F1125   1.382       .  S
C1114      C1115   1.405       .  A
C1114      C1119   1.520       .  S
C1115      C1116   1.403       .  A
C1115      H1120   1.083       .  S
C1116      C1117   1.416       .  A
C1117      C1118   1.400       .  A
C1117      C1121   1.517       .  S
C1118      H1122   1.084       .  S
C1119      F1132   1.385       .  S
C1119      F1133   1.383       .  S
C1119      F1134   1.382       .  S
C1121      F1129   1.381   1_455  S
C1121      F1130   1.384       .  S
C1121      F1131   1.385       .  S
C1135      C1136   1.397       .  A
C1135      C1140   1.397       .  A
C1135      H1145   1.084       .  S
C1136      C1137   1.410       .  A
C1136      C1141   1.468       .  S
C1137      C1138   1.402       .  A
C1137      C1142   1.518       .  S
C1138      C1139   1.406       .  A
C1138      H1143   1.082       .  S
C1139      C1140   1.422       .  A
C1140      C1144   1.524       .  S
C1141      C1146   1.415       .  A
C1141      C1150   1.401       .  A
C1142      F1158   1.382       .  S
C1142      F1159   1.381       .  S
C1142      F1160   1.385       .  S
C1144      F1155   1.379       .  S
C1144      F1156   1.385       .  S
C1144      F1157   1.377       .  S
C1146      C1147   1.402       .  A
C1146      C1151   1.520       .  S
C1147      C1148   1.399       .  A
C1147      H1152   1.084       .  S
C1148      C1149   1.410       .  A
C1149      C1150   1.400       .  A
C1149      C1153   1.517       .  S
C1150      H1154   1.084       .  S
C1151      F1164   1.384       .  S
C1151      F1165   1.382       .  S
C1151      F1166   1.382       .  S
C1153      F1161   1.385       .  S
C1153      F1162   1.383       .  S
C1153      F1163   1.383   1_455  S
C1167      C1168   1.404       .  A
C1167      C1172   1.417       .  A
C1167      H1177   1.083       .  S
C1168      C1169   1.419       .  A
C1168      C1173   1.499       .  S
C1169      C1170   1.409       .  A
C1169      C1174   1.520       .  S
C1170      C1171   1.411       .  A
C1170      H1175   1.084       .  S
C1171      C1172   1.429       .  A
C1172      C1176   1.520       .  S
C1173      C1178   1.415       .  A
C1173      C1182   1.398       .  A
C1174      F1190   1.383       .  S
C1174      F1191   1.381       .  S
C1174      F1192   1.383       .  S
C1176      F1187   1.385       .  S
C1176      F1188   1.384       .  S
C1176      F1189   1.383       .  S
C1178      C1179   1.416       .  A
C1178      C1183   1.516       .  S
C1179      C1180   1.409       .  A
C1179      H1184   1.082       .  S
C1180      C1181   1.430       .  A
C1181      C1182   1.413       .  A
C1181      C1185   1.515       .  S
C1182      H1186   1.083       .  S
C1183      F1196   1.384       .  S
C1183      F1197   1.383       .  S
C1183      F1198   1.382       .  S
C1185      F1193   1.378       .  S
C1185      F1194   1.371       .  S
C1185      F1195   1.385       .  S
C1199      C1200   1.398       .  A
C1199      C1204   1.413       .  A
C1199      H1209   1.083       .  S
C1200      C1201   1.416       .  A
C1200      C1205   1.504       .  S
C1201      C1202   1.416       .  A
C1201      C1206   1.517       .  S
C1202      C1203   1.411       .  A
C1202      H1207   1.079       .  S
C1203      C1204   1.431       .  A
C1204      C1208   1.517       .  S
C1205      C1210   1.417       .  A
C1205      C1214   1.406       .  A
C1206      F1222   1.382       .  S
C1206      F1223   1.382       .  S
C1206      F1224   1.385       .  S
C1208      F1219   1.385       .  S
C1208      F1220   1.377       .  S
C1208      F1221   1.372       .  S
C1210      C1211   1.411       .  A
C1210      C1215   1.520       .  S
C1211      C1212   1.408       .  A
C1211      H1216   1.083       .  S
C1212      C1213   1.425       .  A
C1213      C1214   1.419       .  A
C1213      C1217   1.519       .  S
C1214      H1218   1.083       .  S
C1215      F1228   1.384       .  S
C1215      F1229   1.382       .  S
C1215      F1230   1.381       .  S
C1217      F1225   1.382       .  S
C1217      F1226   1.384       .  S
C1217      F1227   1.385       .  S
C1231      C1232   1.405       .  A
C1231      C1236   1.415       .  A
C1231      H1241   1.083       .  S
C1232      C1233   1.419       .  A
C1232      C1237   1.502       .  S
C1233      C1234   1.414       .  A
C1233      C1238   1.519       .  S
C1234      C1235   1.406       .  A
C1234      H1239   1.083       .  S
C1235      C1236   1.423       .  A
C1236      C1240   1.519       .  S
C1237      C1242   1.417       .  A
C1237      C1246   1.397       .  A
C1238      F1254   1.382       .  S
C1238      F1255   1.382       .  S
C1238      F1256   1.385       .  S
C1240      F1251   1.385       .  S
C1240      F1252   1.382       .  S
C1240      F1253   1.384       .  S
C1242      C1243   1.418       .  A
C1242      C1247   1.518       .  S
C1243      C1244   1.413       .  A
C1243      H1248   1.082       .  S
C1244      C1245   1.432       .  A
C1245      C1246   1.409       .  A
C1245      C1249   1.514       .  S
C1246      H1250   1.085       .  S
C1247      F1260   1.385       .  S
C1247      F1261   1.382       .  S
C1247      F1262   1.382       .  S
C1249      F1257   1.383       .  S
C1249      F1258   1.369       .  S
C1249      F1259   1.384       .  S
C1263      C1264   1.401       .  A
C1263      C1268   1.412       .  A
C1263      H1273   1.085       .  S
C1264      C1265   1.416       .  A
C1264      C1269   1.502       .  S
C1265      C1266   1.414       .  A
C1265      C1270   1.518       .  S
C1266      C1267   1.410       .  A
C1266      H1271   1.083       .  S
C1267      C1268   1.432       .  A
C1268      C1272   1.520       .  S
C1269      C1274   1.418       .  A
C1269      C1278   1.404       .  A
C1270      F1286   1.382       .  S
C1270      F1287   1.382       .  S
C1270      F1288   1.384       .  S
C1272      F1283   1.384       .  S
C1272      F1284   1.383       .  S
C1272      F1285   1.377       .  S
C1274      C1275   1.415       .  A
C1274      C1279   1.520       .  S
C1275      C1276   1.408       .  A
C1275      H1280   1.083       .  S
C1276      C1277   1.422       .  A
C1277      C1278   1.415       .  A
C1277      C1281   1.518       .  S
C1278      H1282   1.083       .  S
C1279      F1292   1.384       .  S
C1279      F1293   1.382       .  S
C1279      F1294   1.382       .  S
C1281      F1289   1.384       .  S
C1281      F1290   1.382       .  S
C1281      F1291   1.383       .  S
C1295      C1296   1.401       .  A
C1295      C1300   1.412       .  A
C1295      H1305   1.085       .  S
C1296      C1297   1.416       .  A
C1296      C1301   1.503       .  S
C1297      C1298   1.414       .  A
C1297      C1302   1.518       .  S
C1298      C1299   1.411       .  A
C1298      H1303   1.083       .  S
C1299      C1300   1.431       .  A
C1300      C1304   1.518       .  S
C1301      C1306   1.420       .  A
C1301      C1310   1.404       .  A
C1302      F1318   1.382       .  S
C1302      F1319   1.382       .  S
C1302      F1320   1.385       .  S
C1304      F1315   1.376       .  S
C1304      F1316   1.384       .  S
C1304      F1317   1.383       .  S
C1306      C1307   1.416       .  A
C1306      C1311   1.519       .  S
C1307      C1308   1.406       .  A
C1307      H1312   1.083       .  S
C1308      C1309   1.420       .  A
C1309      C1310   1.414       .  A
C1309      C1313   1.513       .  S
C1310      H1314   1.083       .  S
C1311      F1324   1.384       .  S
C1311      F1325   1.382       .  S
C1311      F1326   1.382       .  S
C1313      F1321   1.381       .  S
C1313      F1322   1.384       .  S
C1313      F1323   1.385       .  S
C1327      C1328   1.400       .  A
C1327      C1332   1.411       .  A
C1327      H1337   1.085       .  S
C1328      C1329   1.416       .  A
C1328      C1333   1.503       .  S
C1329      C1330   1.415       .  A
C1329      C1334   1.518       .  S
C1330      C1331   1.413       .  A
C1330      H1335   1.083       .  S
C1331      C1332   1.431       .  A
C1332      C1336   1.515       .  S
C1333      C1338   1.419       .  A
C1333      C1342   1.405       .  A
C1334      F1350   1.382       .  S
C1334      F1351   1.382       .  S
C1334      F1352   1.385       .  S
C1336      F1347   1.384       .  S
C1336      F1348   1.383       .  S
C1336      F1349   1.369       .  S
C1338      C1339   1.415       .  A
C1338      C1343   1.519       .  S
C1339      C1340   1.407       .  A
C1339      H1344   1.083       .  S
C1340      C1341   1.423       .  A
C1341      C1342   1.416       .  A
C1341      C1345   1.519       .  S
C1342      H1346   1.083       .  S
C1343      F1356   1.384       .  S
C1343      F1357   1.382       .  S
C1343      F1358   1.382       .  S
C1345      F1353   1.382       .  S
C1345      F1354   1.384       .  S
C1345      F1355   1.385       .  S
