geometry optimzed in LAMMPS
_audit_creation_date              2020-11-30 
_audit_creation_method            'lammps2cif' 
_symmetry_space_group_name_H-M    'P1' 
_symmetry_Int_Tables_number       1 
_symmetry_cell_setting            triclinic 
loop_ 
_symmetry_equiv_pos_as_xyz 
  x,y,z 
_cell_length_a                    31.05799345706446 
_cell_length_b                    30.592152031566197 
_cell_length_c                    29.5964093080684 
_cell_angle_alpha                 92.07959575273837 
_cell_angle_beta                  91.06268144535129 
_cell_angle_gamma                 120.42488695704544 
loop_ 
_atom_site_label 
_atom_site_type_symbol 
_atom_site_fract_x 
_atom_site_fract_y 
_atom_site_fract_z 
_atom_site_charge 
Zr1        Zr  0.32528996  0.18550241  0.42281737     2.17510
O2          O  0.35301523  0.22922836  0.49744514    -0.51590
O3          O  0.29329233  0.10596317  0.46256622    -0.74800
O4          O  0.26326803  0.19840904  0.45776670    -0.81580
O5          O  0.45430694  0.21421374  0.40757366    -0.83330
O6          O  0.24106780  0.23625518  0.40588099    -0.78950
O7          O  0.40326801  0.21474387  0.46133671    -0.90590
O8          O  0.24786624  0.03991512  0.41208690    -0.76550
O9          O  0.24892993  0.13467084  0.38070359    -0.86040
O10         O  0.34181896  0.12827658  0.38124483    -0.85730
O11         O  0.31872202  0.24514925  0.37637287    -0.72490
O12         O  0.39348796  0.23777575  0.37620857    -0.84620
Zr13       Zr  0.32078477  0.17945483  0.24348564     2.26420
Zr14       Zr  0.24051372  0.19272456  0.33320071     2.06270
Zr15       Zr  0.40935462  0.18011832  0.33398659     2.10050
Zr16       Zr  0.26522255  0.07681318  0.33903381     1.78760
O17         O  0.49359085  0.23937577  0.31128671    -0.93420
O18         O  0.17425027  0.02814098  0.33836623    -0.41230
O19         O  0.33328924  0.12529488  0.29171696    -0.77870
O20         O  0.25383166  0.13136534  0.29251642    -0.96550
O21         O  0.30689933  0.24010658  0.28282898    -0.89860
O22         O  0.39820633  0.23374631  0.28324466    -0.92700
C23         C  0.26547222  0.05815751  0.45212783     1.01050
C24         C  0.44532714  0.22297876  0.44825200     1.13980
C25         C  0.25188711  0.23125254  0.44706795     1.04760
O26         O  0.15449042  0.14186053  0.35562898    -0.94850
O27         O  0.19151656  0.15551003  0.26028481    -0.90600
O28         O  0.24469617  0.16117028  0.20565537    -0.83740
C29         C  0.20132367  0.14798917  0.21925762     1.11400
O30         O  0.43666566  0.38275346  0.33985197    -0.96830
Zr31       Zr  0.38290098  0.29138071  0.32540745     1.88940
O32         O  0.35853022  0.25357684  0.19829327    -0.73480
O33         O  0.21943083  0.25506865  0.30881826    -0.52740
O34         O  0.34627700  0.34215141  0.34910852    -0.97420
O35         O  0.47248749  0.33259396  0.34398597    -0.54630
O36         O  0.38892156  0.31991399  0.24947304    -0.73990
C37         C  0.38055868  0.30115449  0.20890803     0.98350
O38         O  0.28457077  0.12455304  0.17484129    -0.62810
O39         O  0.43980529  0.12335956  0.35278119    -0.57620
O40         O  0.37655065  0.15675697  0.20827747    -0.94300
O41         O  0.40915308  0.13337049  0.26529828    -0.92720
O42         O  0.28994660  0.01342524  0.32867581    -0.93080
O43         O  0.23024918  0.01829767  0.27337104    -0.91860
C44         C  0.39780883  0.13352556  0.22333081     1.17190
H45         H  0.35065276  0.10884291  0.40035646     0.33140
H46         H  0.22498197  0.10582058  0.27514142     0.43990
H47         H  0.42551683  0.25046132  0.26321088     0.37520
H48         H  0.32281824  0.27260995  0.39637669     0.34000
H49         H  0.16567037  0.99263605  0.34212735     0.25780
H50         H  0.18350266  0.23994253  0.31475029     0.31720
H51         H  0.33081414  0.34574371  0.32099031     0.37630
H52         H  0.25972920  0.98064560  0.33452813     0.32090
H53         H  0.47667041  0.14492994  0.35372177     0.30970
H54         H  0.51601985  0.23801665  0.33468188     0.32650
H55         H  0.48784727  0.33449563  0.31455171     0.31620
H56         H  0.24490808  0.04007328  0.24751032     0.35610
H57         H  0.30908019  0.14010118  0.15100761     0.28350
H58         H  0.32552439  0.21029502  0.51805646     0.32580
H59         H  0.43248701  0.39842446  0.31268070     0.35430
H60         H  0.43123490  0.11539892  0.38463876     0.28040
H61         H  0.28386289  0.09265087  0.18110407     0.40910
H62         H  0.15632270  0.12364198  0.38189430     0.30970
H63         H  0.16531061  0.03856989  0.36708075     0.38580
H64         H  0.47792763  0.30817800  0.36053412     0.30440
H65         H  0.23664016  0.28398433  0.33139801     0.30500
H66         H  0.35476748  0.26214467  0.49422503     0.30760
C67         C  0.20232059  0.37431106  0.16969338     0.02030
C68         C  0.20321054  0.42123295  0.17008589     0.02030
C69         C  0.15659946  0.42154452  0.16870493     0.02030
C70         C  0.10954347  0.37411779  0.16653050     0.02030
C71         C  0.10982575  0.32782933  0.16726041     0.02030
C72         C  0.15581769  0.32867395  0.16842215     0.02030
C73         C  0.16073531  0.11509499  0.18570573     0.00300
C74         C  0.14416526  0.13632790  0.15530875     0.00300
C75         C  0.37867889  0.35338723  0.14645682     0.00300
C76         C  0.40445149  0.33726840  0.17303210     0.00300
C77         C  0.40316885  0.09966770  0.19035383     0.00300
C78         C  0.44360087  0.11739936  0.16355154     0.00300
C79         C  0.48444663  0.23962994  0.48385396     0.00300
C80         C  0.50085841  0.28262105  0.51156314     0.00300
C81         C  0.25921933  0.02110630  0.48665174     0.00300
C82         C  0.21502729  0.49376419  0.50834188     0.00300
C83         C  0.03333853  0.00831077  0.49908563     0.02030
C84         C  0.48558080  0.46275799  0.49499839     0.02030
C85         C  0.44038764  0.46385496  0.49541886     0.02030
C86         C  0.44254101  0.01109689  0.50021805     0.02030
C87         C  0.48989404  0.05657498  0.50346200     0.02030
C88         C  0.03515984  0.05529021  0.50417477     0.02030
C89         C  0.22263057  0.24977410  0.51866330     0.00300
C90         C  0.25521056  0.26680818  0.48440048     0.00300
Zr91       Zr  0.48191295  0.00801531  0.91067934     2.17510
O92         O  0.46008412  0.00916748  0.83096751    -0.51590
O93         O  0.01952189  0.96744813  0.86477894    -0.74800
O94         O  0.02791100  0.08951062  0.87871286    -0.81580
O95         O  0.36405171  0.39141669  0.92185636    -0.83330
O96         O  0.08505046  0.14571237  0.93178394    -0.78950
O97         O  0.39815782  0.46079946  0.88035380    -0.90590
O98         O  0.05966127  0.44194447  0.91213766    -0.76550
O99         O  0.05916104  0.03469546  0.95052095    -0.86040
O100        O  0.46908700  0.43462920  0.94748029    -0.85730
O101        O  0.99381914  0.07694797  0.96187047    -0.72490
O102        O  0.41371139  0.98626429  0.95950779    -0.84620
Zr103      Zr  0.99345137  0.00884326  0.08887089     2.26420
Zr104      Zr  0.07090202  0.10235223  0.00280712     2.06270
Zr105      Zr  0.40306470  0.41472344  0.99808371     2.10050
Zr106      Zr  0.04567009  0.46130661  0.98806044     1.78760
O107        O  0.31786883  0.39446319  0.01115596    -0.93420
O108        O  0.13607562  0.00171745  0.98358496    -0.41230
O109        O  0.47962416  0.43916105  0.03877035    -0.77870
O110        O  0.06092701  0.02964041  0.03945652    -0.96550
O111        O  0.00425201  0.08120252  0.05214660    -0.89860
O112        O  0.41536149  0.98185024  0.05056892    -0.92700
C113        C  0.04627646  0.44703766  0.87253498     1.01050
C114        C  0.36530790  0.41493059  0.88622591     1.13980
C115        C  0.06495766  0.13283239  0.89135104     1.04760
O116        O  0.15889695  0.13580038  0.98889305    -0.94850
O117        O  0.11235958  0.12427684  0.07893265    -0.90600
O118        O  0.06925468  0.06493926  0.12964384    -0.83740
C119        C  0.10674471  0.10622419  0.11864029     1.11400
O120        O  0.38812574  0.07450095  0.95095221    -0.96830
Zr121      Zr  0.42717362  0.05377661  0.01191395     1.88940
O122        O  0.46760211  0.05946918  0.13449290    -0.73480
O123        O  0.08779612  0.18746815  0.02391131    -0.52740
O124        O  0.45382937  0.14348571  0.00889964    -0.97420
O125        O  0.33728070  0.01149693  0.02199982    -0.54630
O126        O  0.42697054  0.08532082  0.08779286    -0.73990
C127        C  0.44519329  0.08422055  0.12657364     0.98350
O128        O  0.02937917  0.48920427  0.15368338    -0.62810
O129        O  0.37338188  0.32468928  0.98400240    -0.57620
O130        O  0.43383016  0.43522690  0.12533230    -0.94300
O131        O  0.39484325  0.37344450  0.06943259    -0.92720
O132        O  0.01337224  0.37031391  0.98834448    -0.93080
O133        O  0.08477209  0.43956609  0.04793234    -0.91860
C134        C  0.40512898  0.38924552  0.11132260     1.17190
H135        H  0.46030352  0.40627832  0.92631691     0.33140
H136        H  0.09114076  0.03739082  0.05616254     0.43990
H137        H  0.38894417  0.47064678  0.07171943     0.37520
H138        H  0.99475200  0.10462891  0.94646420     0.34000
H139        H  0.14212194  0.47393421  0.97427153     0.25780
H140        H  0.12051722  0.21046951  0.01113031     0.31720
H141        H  0.42772294  0.14733316  0.02413561     0.37630
H142        H  0.04279288  0.36642655  0.98378730     0.32090
H143        H  0.33679833  0.30859964  0.97860470     0.30970
H144        H  0.29664863  0.36544488  0.98960008     0.32650
H145        H  0.33093743  0.03908493  0.03125075     0.31620
H146        H  0.07245197  0.44712529  0.07604700     0.35610
H147        H  0.00641244  0.48150674  0.17883917     0.28350
H148        H  0.49135128  0.02178853  0.81450238     0.32580
H149        H  0.36767144  0.08702702  0.96548928     0.35430
H150        H  0.38607795  0.32213231  0.95416112     0.28040
H151        H  0.02751248  0.45678857  0.14481616     0.40910
H152        H  0.16661013  0.11098132  0.00173610     0.30970
H153        H  0.14426633  0.02275868  0.95692276     0.38580
H154        H  0.33121013  0.99188310  0.04935335     0.30440
H155        H  0.06335696  0.19159136  0.00535162     0.30500
H156        H  0.45122138  0.03595769  0.82886018     0.30760
Zr157      Zr  0.15940615  0.34124097  0.75476941     2.17510
O158        O  0.19555727  0.39278053  0.82512458    -0.51590
O159        O  0.11294921  0.26453252  0.79693471    -0.74800
O160        O  0.10618040  0.36805828  0.79044072    -0.81580
O161        O  0.29029286  0.37938297  0.73899132    -0.83330
O162        O  0.05135483  0.36186655  0.73527033    -0.78950
O163        O  0.23236328  0.35116834  0.79271400    -0.90590
O164        O  0.08969000  0.19586145  0.74916532    -0.76550
O165        O  0.08447777  0.28175836  0.71397380    -0.86040
O166        O  0.18177542  0.28724845  0.71434782    -0.85730
O167        O  0.14358994  0.39310825  0.70600079    -0.72490
O168        O  0.22714693  0.39285439  0.70722515    -0.84620
Zr169      Zr  0.15635307  0.33267516  0.57645679     2.26420
Zr170      Zr  0.06873991  0.33256843  0.66378898     2.06270
Zr171      Zr  0.24729155  0.33751068  0.66533685     2.10050
Zr172      Zr  0.10737929  0.22839862  0.67358247     1.78760
O173        O  0.32899356  0.39338576  0.63562339    -0.93420
O174        O  0.01943281  0.16329638  0.66399750    -0.41230
O175        O  0.17181962  0.27964280  0.62424089    -0.77870
O176        O  0.09042915  0.27792471  0.62444491    -0.96550
O177        O  0.13528432  0.38710378  0.61659154    -0.89860
O178        O  0.23206062  0.39019810  0.61705543    -0.92700
C179        C  0.09295718  0.21645549  0.78861251     1.01050
C180        C  0.27714637  0.37675515  0.78044556     1.13980
C181        C  0.06926197  0.37220119  0.77632420     1.04760
O182        O  0.98348609  0.26758399  0.67863695    -0.94850
O183        O  0.02393917  0.29831936  0.58979823    -0.90600
O184        O  0.07770621  0.29877883  0.53797950    -0.83740
C185        C  0.03532021  0.29114390  0.54941264     1.11400
O186        O  0.23724068  0.50340167  0.72411694    -0.96830
Zr187      Zr  0.21049740  0.44386071  0.65887194     1.88940
O188        O  0.18492848  0.41036022  0.53474573    -0.73480
O189        O  0.03855052  0.39004523  0.64688745    -0.52740
O190        O  0.17089267  0.49522034  0.65720837    -0.97420
O191        O  0.30041919  0.50294131  0.66192933    -0.54630
O192        O  0.22362538  0.47824829  0.58473977    -0.73990
C193        C  0.20893854  0.45848174  0.54453426     0.98350
O194        O  0.12964245  0.28796675  0.50211404    -0.62810
O195        O  0.28563073  0.28846157  0.68682099    -0.57620
O196        O  0.21999956  0.32179346  0.54347696    -0.94300
O197        O  0.23457789  0.28108449  0.59730500    -0.92720
O198        O  0.14962963  0.17968246  0.67473221    -0.93080
O199        O  0.06890926  0.16934052  0.60871783    -0.91860
C200        C  0.22707024  0.28649865  0.55531972     1.17190
H201        H  0.19317809  0.27013628  0.73363214     0.33140
H202        H  0.06221357  0.25147038  0.60697466     0.43990
H203        H  0.25896123  0.40871106  0.59703009     0.37520
H204        H  0.13938867  0.41810460  0.72293793     0.34000
H205        H  0.01628621  0.13325292  0.67858872     0.25780
H206        H  0.00585185  0.37565930  0.66116629     0.31720
H207        H  0.19783428  0.52970110  0.65047967     0.37630
H208        H  0.12432630  0.14615427  0.68514453     0.32090
H209        H  0.32190429  0.31336624  0.68966027     0.30970
H210        H  0.34537527  0.42248126  0.65812210     0.32650
H211        H  0.30472254  0.53342538  0.64730808     0.31620
H212        H  0.08127183  0.19052369  0.58217475     0.35610
H213        H  0.15774876  0.30599740  0.48188207     0.28350
H214        H  0.16990209  0.37787031  0.84812523     0.32580
H215        H  0.25123675  0.53744668  0.71186721     0.35430
H216        H  0.27549911  0.27909451  0.71813611     0.28040
H217        H  0.12680191  0.25466745  0.50611427     0.40910
H218        H  0.98628411  0.25331185  0.70729796     0.30970
H219        H  0.00168143  0.17563217  0.68328609     0.38580
H220        H  0.31419048  0.48794547  0.64063004     0.30440
H221        H  0.06088018  0.42172642  0.66517140     0.30500
H222        H  0.19920358  0.42614074  0.81940189     0.30760
C223        C  0.32870249  0.38635054  0.84839447     0.00300
C224        C  0.31417236  0.40865765  0.81695245     0.00300
C225        C  0.27180756  0.14647279  0.82990995     0.02030
C226        C  0.31754664  0.19329565  0.83291575     0.02030
C227        C  0.36392200  0.19489504  0.83412883     0.02030
C228        C  0.36559231  0.14954580  0.83457426     0.02030
C229        C  0.31975308  0.10182942  0.83100725     0.02030
C230        C  0.27254316  0.10010478  0.82866361     0.02030
C231        C  0.09270205  0.16484100  0.85430728     0.00300
C232        C  0.06899520  0.18284077  0.82664677     0.00300
C233        C  0.06804973  0.43282030  0.83407014     0.00300
C234        C  0.04343822  0.38662308  0.81025065     0.00300
C235        C  0.43393524  0.14425616  0.79518651    -0.21570
C236        C  0.41585231  0.15298017  0.83536852    -0.09610
C237        C  0.44786997  0.16950295  0.87458487     0.29250
C238        C  0.49730637  0.17877876  0.87261119    -0.21570
C239        C  0.51495993  0.16912406  0.83201896    -0.09620
C240        C  0.48121536  0.14932540  0.79414108     0.29260
F241        F  0.99360050  0.13385616  0.75581754    -0.20140
H242        H  0.41180492  0.13428643  0.76397801     0.17620
H243        H  0.52189336  0.19416401  0.90257593     0.17630
F244        F  0.43187224  0.17817269  0.91441444    -0.20130
C245        C  0.21353140  0.17765321  0.80358827    -0.21570
C246        C  0.22347598  0.14706312  0.83150782    -0.09610
C247        C  0.19118096  0.12403668  0.86635724     0.29250
C248        C  0.14829600  0.12701943  0.87001729    -0.21570
C249        C  0.13972645  0.16133636  0.84524776    -0.09620
C250        C  0.17637529  0.18940575  0.81415113     0.29260
F251        F  0.18266682  0.23336021  0.80004531    -0.20140
H252        H  0.23840898  0.19747632  0.77697504     0.17620
H253        H  0.12353293  0.10319032  0.89492985     0.17630
F254        F  0.20247232  0.10139350  0.89925921    -0.20130
C255        C  0.15718205  0.97910103  0.86314441    -0.21570
C256        C  0.12238721  0.96971600  0.82779781    -0.09610
C257        C  0.13895300  0.99972489  0.78997293     0.29250
C258        C  0.18893138  0.03954620  0.78882386    -0.21570
C259        C  0.22332045  0.05059341  0.82544021    -0.09620
C260        C  0.20639583  0.01953669  0.86268013     0.29260
F261        F  0.23448366  0.03278678  0.90170763    -0.20140
H262        H  0.14544382  0.45672278  0.89269926     0.17620
H263        H  0.20013214  0.06384215  0.76044747     0.17630
F264        F  0.10622178  0.99254758  0.75550332    -0.20130
C265        C  0.43980300  0.27415402  0.86782124    -0.21570
C266        C  0.41048407  0.24463615  0.82981008    -0.09610
C267        C  0.42292420  0.26442873  0.78702823     0.29250
C268        C  0.46024581  0.31469688  0.78292021    -0.21570
C269        C  0.49275993  0.34342191  0.81997872    -0.09620
C270        C  0.48252938  0.32169666  0.86254839     0.29260
F271        F  0.01588838  0.34365977  0.89793112    -0.20140
H272        H  0.43102167  0.25938980  0.90117212     0.17620
H273        H  0.46589500  0.32970797  0.74966638     0.17630
F274        F  0.39756642  0.23546104  0.74923011    -0.20130
C275        C  0.33070314  0.99035255  0.78455211    -0.21570
C276        C  0.32232103  0.96143124  0.82285663    -0.09610
C277        C  0.31436941  0.98028886  0.86418253     0.29250
C278        C  0.31650542  0.02712503  0.86688407    -0.21570
C279        C  0.32167163  0.05401967  0.82815429    -0.09620
C280        C  0.32935719  0.03543406  0.78692821     0.29260
F281        F  0.33477101  0.06044079  0.74867907    -0.20140
H282        H  0.33654234  0.97709905  0.75212515     0.17620
H283        H  0.31245981  0.04164697  0.89922511     0.17630
F284        F  0.30158964  0.45245986  0.90143329    -0.20130
C285        C  0.29745787  0.29941068  0.87602230    -0.21570
C286        C  0.31726579  0.33335636  0.84114475    -0.09610
C287        C  0.33446525  0.31972328  0.80279701     0.29250
C288        C  0.33073915  0.27264282  0.79909243    -0.21570
C289        C  0.31706328  0.24161905  0.83608316    -0.09620
C290        C  0.29970227  0.25501231  0.87460049     0.29260
F291        F  0.28461090  0.22498428  0.91043742    -0.20140
H292        H  0.28334146  0.30894300  0.90567934     0.17620
H293        H  0.33934235  0.26090913  0.76744323     0.17630
F294        F  0.35764579  0.35303866  0.77021067    -0.20130
C295        C  0.15678166  0.16957395  0.55292513    -0.21570
C296        C  0.17528917  0.19863941  0.51477975    -0.09610
C297        C  0.14630737  0.17979999  0.47375340     0.29250
C298        C  0.10471872  0.13099798  0.46981578    -0.21570
C299        C  0.08469586  0.10354557  0.50818490    -0.09620
C300        C  0.11083413  0.12367831  0.55009811     0.29260
F301        F  0.09084155  0.10050181  0.58871487    -0.20140
H302        H  0.17676997  0.18330865  0.58538406     0.17620
H303        H  0.08642491  0.11597163  0.43694266     0.17630
F304        F  0.15523567  0.20980140  0.43840766    -0.20130
C305        C  0.37740381  0.38349251  0.53004614    -0.21570
C306        C  0.39099667  0.41506124  0.49340688    -0.09610
C307        C  0.35996383  0.39744744  0.45372047     0.29250
C308        C  0.31533137  0.35034100  0.45165956    -0.21570
C309        C  0.30186645  0.31847588  0.48812294    -0.09620
C310        C  0.33437351  0.33525237  0.52706671     0.29260
F311        F  0.32602937  0.30405860  0.56142430    -0.20140
H312        H  0.40156315  0.39538882  0.56032886     0.17620
H313        H  0.29175483  0.33816262  0.42103105     0.17630
F314        F  0.37438371  0.42411658  0.41587975    -0.20130
C315        C  0.32741117  0.51805291  0.53475544    -0.21570
C316        C  0.30365715  0.01357154  0.49232219    -0.09610
C317        C  0.32670616  0.00816345  0.45355066     0.29250
C318        C  0.37277348  0.01064550  0.45666122    -0.21570
C319        C  0.39516483  0.01291413  0.49864547    -0.09620
C320        C  0.37169870  0.51582935  0.53801264     0.29260
F321        F  0.39222751  0.51778223  0.57943822    -0.20140
H322        H  0.31270121  0.52464915  0.56528474     0.17620
H323        H  0.39066241  0.00978530  0.42588182     0.17630
F324        F  0.30442094  0.99971858  0.41209567    -0.20130
C325        C  0.15557999  0.01773864  0.54091909    -0.21570
C326        C  0.17155034  0.50248639  0.50260027    -0.09610
C327        C  0.14102219  0.48806755  0.46256277     0.29250
C328        C  0.09736390  0.49172685  0.46081567    -0.21570
C329        C  0.08161494  0.50694147  0.49965345    -0.09620
C330        C  0.11056986  0.01770482  0.54014132     0.29260
F331        F  0.09303674  0.02303350  0.58020159    -0.20140
H332        H  0.17685193  0.02717375  0.57262363     0.17620
H333        H  0.07474822  0.48075523  0.42963153     0.17630
F334        F  0.15142642  0.46727388  0.42624512    -0.20130
C335        C  0.48068963  0.12728411  0.53804906    -0.21570
C336        C  0.49230850  0.10588757  0.50102265    -0.09610
C337        C  0.00476355  0.13070949  0.46041704     0.29250
C338        C  0.01010244  0.17840740  0.45807474    -0.21570
C339        C  0.49546225  0.19878645  0.49377827    -0.09620
C340        C  0.48027091  0.17248033  0.53397404     0.29260
F341        F  0.46189663  0.18840227  0.56793912    -0.20140
H342        H  0.46985523  0.10786144  0.56930560     0.17620
H343        H  0.02155464  0.19743993  0.42668173     0.17630
F344        F  0.00880580  0.10739038  0.42221758    -0.20130
C345        C  0.00690526  0.40852671  0.53568959    -0.21570
C346        C  0.48360750  0.41394989  0.49804830    -0.09610
C347        C  0.46333771  0.37547511  0.46360999     0.29250
C348        C  0.46728167  0.33210930  0.46734242    -0.21570
C349        C  0.49468002  0.32820065  0.50413336    -0.09620
C350        C  0.01922720  0.37153757  0.53507067     0.29260
F351        F  0.06088331  0.38384663  0.56057024    -0.20140
H352        H  0.02207289  0.43744570  0.56294830     0.17620
H353        H  0.45118043  0.30435160  0.43976447     0.17630
F354        F  0.44032074  0.38001846  0.42646482    -0.20130
C355        C  0.16895771  0.21982916  0.12465303    -0.21570
C356        C  0.15514953  0.18911780  0.16190734    -0.09610
C357        C  0.14235080  0.20534149  0.20195397     0.29250
C358        C  0.14651056  0.25276667  0.20510029    -0.21570
C359        C  0.15555282  0.28050676  0.16638774    -0.09620
C360        C  0.16435167  0.26250179  0.12556740     0.29260
F361        F  0.16732280  0.28551070  0.08647517    -0.20140
H362        H  0.17958434  0.20886823  0.09354725     0.17620
H363        H  0.13916303  0.26620391  0.23671664     0.17630
F364        F  0.12184417  0.17398228  0.23636305    -0.20130
C365        C  0.14400326  0.48633937  0.21218173    -0.21570
C366        C  0.15622985  0.47062135  0.17167650    -0.09610
C367        C  0.16509481  0.50054410  0.13406327     0.29250
C368        C  0.16429012  0.04618080  0.13778152    -0.21570
C369        C  0.15291850  0.06232261  0.17874847    -0.09620
C370        C  0.14176711  0.53103684  0.21564772     0.29260
F371        F  0.12952308  0.54425123  0.25555466    -0.20140
H372        H  0.13720391  0.46442222  0.24179606     0.17620
H373        H  0.17394875  0.06962638  0.10888696     0.17630
F374        F  0.17416995  0.48559752  0.09352976    -0.20130
C375        C  0.04578340  0.25194889  0.20720376    -0.21570
C376        C  0.06235101  0.27704133  0.16675281    -0.09610
C377        C  0.04053968  0.24916964  0.12568668     0.29250
C378        C  0.00136267  0.19859294  0.12531556    -0.21570
C379        C  0.98495036  0.17278443  0.16563033    -0.09620
C380        C  0.00970836  0.19990882  0.20657361     0.29260
F381        F  0.00260830  0.17535115  0.24536204    -0.20140
H382        H  0.06409826  0.27168372  0.23914524     0.17620
H383        H  0.48500238  0.17926683  0.09295822     0.17630
F384        F  0.05908244  0.26981923  0.08574287    -0.20130
C385        C  0.32691141  0.53790829  0.14127413    -0.21570
C386        C  0.35543917  0.04947314  0.18212765    -0.09610
C387        C  0.33277104  0.51868461  0.21868438     0.29250
C388        C  0.28267036  0.47939615  0.21499611    -0.21570
C389        C  0.25386762  0.46846913  0.17451208    -0.09620
C390        C  0.27756704  0.49661962  0.13690873     0.29260
F391        F  0.25384552  0.48325388  0.09556978    -0.20140
H392        H  0.34208263  0.06188929  0.11307907     0.17620
H393        H  0.26622821  0.45686378  0.24390501     0.17360
F394        F  0.35891430  0.52738304  0.25849065    -0.20130
C395        C  0.04118086  0.38064498  0.20557646    -0.21570
C396        C  0.05952175  0.37164756  0.16555769    -0.09610
C397        C  0.02735281  0.35461601  0.12639785     0.29250
C398        C  0.97786447  0.34524924  0.12801662    -0.21570
C399        C  0.95957029  0.35437575  0.16837147    -0.09620
C400        C  0.99321631  0.37438215  0.20662515     0.29260
F401        F  0.98015890  0.38841688  0.24551375    -0.20140
H402        H  0.06362285  0.39151998  0.23676043     0.17620
H403        H  0.95343817  0.32951101  0.09797871     0.17630
F404        F  0.04324383  0.34554489  0.08674622    -0.20130
C405        C  0.26319576  0.36283998  0.12353911    -0.21570
C406        C  0.24953254  0.37117580  0.16635159    -0.09610
C407        C  0.27521626  0.36701769  0.20442827     0.29250
C408        C  0.31589424  0.35874791  0.19900927    -0.21570
C409        C  0.32830253  0.34858003  0.15568038    -0.09620
C410        C  0.29802780  0.34696555  0.11858078     0.29260
F411        F  0.30160315  0.32934130  0.07702362    -0.20140
H412        H  0.24403028  0.36507410  0.09359521     0.17620
H413        H  0.33807833  0.36150916  0.22867813     0.17630
F414        F  0.26154304  0.37163662  0.24677791    -0.20130
Zr415      Zr  0.32528670  0.68549916  0.42281907     2.17510
O416        O  0.35300960  0.72922329  0.49744775    -0.51590
O417        O  0.29329022  0.60596048  0.46256870    -0.74800
O418        O  0.26326468  0.69840748  0.45776621    -0.81580
O419        O  0.45430290  0.71420841  0.40757605    -0.83330
O420        O  0.24106681  0.73625489  0.40587983    -0.78950
O421        O  0.40326565  0.71474373  0.46133830    -0.90590
O422        O  0.24786197  0.53991214  0.41209029    -0.76550
O423        O  0.24892620  0.63466929  0.38070528    -0.86040
O424        O  0.34181330  0.62827099  0.38124728    -0.85730
O425        O  0.31872086  0.74514638  0.37637329    -0.72490
O426        O  0.39348541  0.73777058  0.37621023    -0.84620
Zr427      Zr  0.32078315  0.67944987  0.24348729     2.26420
Zr428      Zr  0.24051261  0.69272315  0.33320040     2.06270
Zr429      Zr  0.40935014  0.68011101  0.33398956     2.10050
Zr430      Zr  0.26521610  0.57680918  0.33903662     1.78760
O431        O  0.49358826  0.73936516  0.31129185    -0.93420
O432        O  0.17424356  0.52814894  0.33837334    -0.41230
O433        O  0.33328442  0.62528861  0.29171996    -0.77870
O434        O  0.25382854  0.63136194  0.29251715    -0.96550
O435        O  0.30689933  0.74010331  0.28282934    -0.89860
O436        O  0.39820451  0.73373988  0.28324685    -0.92700
C437        C  0.26546956  0.55815477  0.45213083     1.01050
C438        C  0.44532418  0.72297642  0.44825384     1.13980
C439        C  0.25188538  0.73125205  0.44706694     1.04760
O440        O  0.15448841  0.64186119  0.35562695    -0.94850
O441        O  0.19151733  0.65550931  0.26028347    -0.90600
O442        O  0.24469836  0.66117240  0.20565439    -0.83740
C443        C  0.20132541  0.64798990  0.21925621     1.11400
O444        O  0.43667006  0.88274878  0.33985011    -0.96830
Zr445      Zr  0.38290080  0.79137620  0.32540818     1.88940
O446        O  0.35852835  0.75357151  0.19829393    -0.73480
O447        O  0.21943233  0.75506878  0.30881689    -0.52740
O448        O  0.34628017  0.84214971  0.34911012    -0.97420
O449        O  0.47248739  0.83258663  0.34398515    -0.54630
O450        O  0.38891921  0.81990868  0.24947364    -0.73990
C451        C  0.38055633  0.80114925  0.20890860     0.98350
O452        O  0.28456681  0.62453956  0.17484803    -0.62810
O453        O  0.43979510  0.62334827  0.35278714    -0.57620
O454        O  0.37655288  0.65675773  0.20827918    -0.94300
O455        O  0.40915032  0.63336599  0.26529998    -0.92720
O456        O  0.28992372  0.51340878  0.32867599    -0.93080
O457        O  0.23024082  0.51829140  0.27337554    -0.91860
C458        C  0.39780845  0.63352376  0.22333235     1.17190
H459        H  0.35064642  0.60883694  0.40035906     0.33140
H460        H  0.22497905  0.60581776  0.27514150     0.43990
H461        H  0.42551539  0.75045414  0.26321333     0.37520
H462        H  0.32281748  0.77260741  0.39637686     0.34000
H463        H  0.16565841  0.49264153  0.34212871     0.25780
H464        H  0.18350434  0.73994394  0.31474912     0.31720
H465        H  0.33081689  0.84574215  0.32099226     0.37630
H466        H  0.25970660  0.48063388  0.33454047     0.32090
H467        H  0.47666043  0.64491583  0.35372452     0.30970
H468        H  0.51601573  0.73800188  0.33468604     0.32650
H469        H  0.48784630  0.83448678  0.31455067     0.31620
H470        H  0.24490053  0.54006589  0.24751432     0.35610
H471        H  0.30907403  0.64008609  0.15101243     0.28350
H472        H  0.32551784  0.71028953  0.51805811     0.32580
H473        H  0.43248610  0.89842015  0.31268154     0.35430
H474        H  0.43122761  0.61539210  0.38464592     0.28040
H475        H  0.28386235  0.59263976  0.18111381     0.40910
H476        H  0.15631972  0.62364419  0.38189392     0.30970
H477        H  0.16530805  0.53857592  0.36709122     0.38580
H478        H  0.47792652  0.80817025  0.36053370     0.30440
H479        H  0.23664260  0.78398480  0.33139620     0.30500
H480        H  0.35476233  0.76213988  0.49422799     0.30760
C481        C  0.20232086  0.87431126  0.16969700     0.02030
C482        C  0.20321081  0.92123320  0.17008941     0.02030
C483        C  0.15659951  0.92154456  0.16870814     0.02030
C484        C  0.10954349  0.87411780  0.16653326     0.02030
C485        C  0.10982592  0.82782943  0.16726324     0.02030
C486        C  0.15581790  0.82867417  0.16842532     0.02030
C487        C  0.16073780  0.61509624  0.18570356     0.00300
C488        C  0.14416806  0.63632957  0.15530680     0.00300
C489        C  0.37867634  0.85338273  0.14645762     0.00300
C490        C  0.40444898  0.83726364  0.17303276     0.00300
C491        C  0.40316859  0.59966663  0.19035460     0.00300
C492        C  0.44360072  0.61739949  0.16355228     0.00300
C493        C  0.48444432  0.73962858  0.48385536     0.00300
C494        C  0.50085705  0.78262060  0.51156344     0.00300
C495        C  0.25921827  0.52110368  0.48665442     0.00300
C496        C  0.21502831  0.99376797  0.50833908     0.00300
C497        C  0.03333915  0.50831075  0.49909003     0.02030
C498        C  0.48558005  0.96275767  0.49499546     0.02030
C499        C  0.44038691  0.96385475  0.49541541     0.02030
C500        C  0.44254180  0.51109709  0.50022135     0.02030
C501        C  0.48989476  0.55657529  0.50346443     0.02030
C502        C  0.03516045  0.55529022  0.50417877     0.02030
C503        C  0.22262972  0.74977534  0.51866189     0.00300
C504        C  0.25520954  0.76680844  0.48439898     0.00300
Zr505      Zr  0.48191516  0.50801773  0.91067883     2.17510
O506        O  0.46008596  0.50916898  0.83096692    -0.51590
O507        O  0.01952436  0.46745033  0.86477743    -0.74800
O508        O  0.02791184  0.58951345  0.87871102    -0.81580
O509        O  0.36404939  0.89141440  0.92185561    -0.83330
O510        O  0.08505326  0.64571416  0.93178144    -0.78950
O511        O  0.39815561  0.96079790  0.88035391    -0.90590
O512        O  0.05966033  0.94194426  0.91213942    -0.76550
O513        O  0.05916380  0.53469732  0.95051888    -0.86040
O514        O  0.46908620  0.93462685  0.94748009    -0.85730
O515        O  0.99382242  0.57695057  0.96186890    -0.72490
O516        O  0.41371410  0.48626894  0.95950741    -0.84620
Zr517      Zr  0.99345442  0.50884527  0.08886916     2.26420
Zr518      Zr  0.07090545  0.60235433  0.00280500     2.06270
Zr519      Zr  0.40306309  0.91471868  0.99808317     2.10050
Zr520      Zr  0.04566739  0.96130466  0.98806222     1.78760
O521        O  0.31786520  0.89445309  0.01115300    -0.93420
O522        O  0.13607812  0.50171907  0.98358134    -0.41230
O523        O  0.47962282  0.93915805  0.03877022    -0.77870
O524        O  0.06093001  0.52964245  0.03945464    -0.96550
O525        O  0.00425566  0.58120487  0.05214487    -0.89860
O526        O  0.41536486  0.48185612  0.05056871    -0.92700
C527        C  0.04627518  0.94703680  0.87253663     1.01050
C528        C  0.36530560  0.91492890  0.88622545     1.13980
C529        C  0.06495931  0.63283489  0.89134888     1.04760
O530        O  0.15889976  0.63580005  0.98888968    -0.94850
O531        O  0.11236313  0.62427893  0.07893050    -0.90600
O532        O  0.06925766  0.56494149  0.12964170    -0.83740
C533        C  0.10674790  0.60622621  0.11863814     1.11400
O534        O  0.38813302  0.57450969  0.95095118    -0.96830
Zr535      Zr  0.42717851  0.55378256  0.01191307     1.88940
O536        O  0.46760365  0.55947121  0.13449281    -0.73480
O537        O  0.08780235  0.68747131  0.02390890    -0.52740
O538        O  0.45383830  0.64349279  0.00890034    -0.97420
O539        O  0.33728523  0.51150525  0.02199571    -0.54630
O540        O  0.42697306  0.58532388  0.08779267    -0.73990
C541        C  0.44519449  0.58422223  0.12657372     0.98350
O542        O  0.02937603  0.98920250  0.15368534    -0.62810
O543        O  0.37338719  0.82468633  0.98399916    -0.57620
O544        O  0.43382752  0.93522234  0.12533280    -0.94300
O545        O  0.39484019  0.87344005  0.06943295    -0.92720
O546        O  0.01336948  0.87031187  0.98834479    -0.93080
O547        O  0.08476750  0.93956233  0.04793431    -0.91860
C548        C  0.40512632  0.88924096  0.11132308     1.17190
H549        H  0.46030346  0.90627637  0.92631646     0.33140
H550        H  0.09114376  0.53739273  0.05616062     0.43990
H551        H  0.38894060  0.97063991  0.07171949     0.37520
H552        H  0.99475525  0.60463170  0.94646299     0.34000
H553        H  0.14211972  0.97393281  0.97427505     0.25780
H554        H  0.12052368  0.71047182  0.01112785     0.31720
H555        H  0.42773165  0.64734101  0.02413496     0.37630
H556        H  0.04279019  0.86642461  0.98378771     0.32090
H557        H  0.33680323  0.80859401  0.97860256     0.30970
H558        H  0.29664635  0.86543063  0.98960048     0.32650
H559        H  0.33094321  0.53909338  0.03124947     0.31620
H560        H  0.07244808  0.94712263  0.07604888     0.35610
H561        H  0.00640898  0.98150440  0.17884094     0.28350
H562        H  0.49135308  0.52179011  0.81450170     0.32580
H563        H  0.36767970  0.58703705  0.96548811     0.35430
H564        H  0.38608295  0.82213163  0.95415706     0.28040
H565        H  0.02750995  0.95678714  0.14481796     0.40910
H566        H  0.16661305  0.61098213  0.00173511     0.30970
H567        H  0.14426818  0.52275973  0.95691881     0.38580
H568        H  0.33121253  0.49188784  0.04934714     0.30440
H569        H  0.06336380  0.69159544  0.00534918     0.30500
H570        H  0.45122288  0.53595892  0.82885934     0.30760
Zr571      Zr  0.15940944  0.84124628  0.75476730     2.17510
O572        O  0.19556590  0.89279452  0.82511741    -0.51590
O573        O  0.11295265  0.76453734  0.79693292    -0.74800
O574        O  0.10618194  0.86806040  0.79044057    -0.81580
O575        O  0.29029384  0.87938732  0.73898828    -0.83330
O576        O  0.05135655  0.86186978  0.73527041    -0.78950
O577        O  0.23236328  0.85116312  0.79270966    -0.90590
O578        O  0.08969285  0.69586645  0.74916303    -0.76550
O579        O  0.08448045  0.78176366  0.71397251    -0.86040
O580        O  0.18177699  0.78725864  0.71433855    -0.85730
O581        O  0.14359171  0.89311306  0.70599917    -0.72490
O582        O  0.22714956  0.89286117  0.70722245    -0.84620
Zr583      Zr  0.15635308  0.83267972  0.57645418     2.26420
Zr584      Zr  0.06874128  0.83257306  0.66378804     2.06270
Zr585      Zr  0.24729428  0.83751885  0.66533186     2.10050
Zr586      Zr  0.10738106  0.72840390  0.67358003     1.78760
O587        O  0.32899402  0.89339739  0.63561554    -0.93420
O588        O  0.01943184  0.66330879  0.66399633    -0.41230
O589        O  0.17182129  0.77964879  0.62423825    -0.77870
O590        O  0.09042997  0.77792929  0.62444300    -0.96550
O591        O  0.13528466  0.88710838  0.61658968    -0.89860
O592        O  0.23206120  0.89020473  0.61705091    -0.92700
C593        C  0.09296026  0.71646014  0.78861049     1.01050
C594        C  0.27714648  0.87675476  0.78044260     1.13980
C595        C  0.06926334  0.87220333  0.77632441     1.04760
O596        O  0.98348691  0.76759050  0.67863648    -0.94850
O597        O  0.02393851  0.79832132  0.58979842    -0.90600
O598        O  0.07770480  0.79878032  0.53797902    -0.83740
C599        C  0.03531882  0.79114486  0.54941281     1.11400
O600        O  0.23724252  0.00340954  0.72411289    -0.96830
Zr601      Zr  0.21049815  0.94386629  0.65886938     1.88940
O602        O  0.18492799  0.91036449  0.53474350    -0.73480
O603        O  0.03855424  0.89005183  0.64688675    -0.52740
O604        O  0.17089291  0.99522541  0.65720552    -0.97420
O605        O  0.30042018  0.00294603  0.66192710    -0.54630
O606        O  0.22362720  0.97825304  0.58473691    -0.73990
C607        C  0.20893927  0.95848600  0.54453169     0.98350
O608        O  0.12964371  0.78797499  0.50210978    -0.62810
O609        O  0.28564033  0.78847518  0.68681290    -0.57620
O610        O  0.21999710  0.82179452  0.54347296    -0.94300
O611        O  0.23457834  0.78108900  0.59730244    -0.92720
O612        O  0.14962691  0.67968352  0.67473174    -0.93080
O613        O  0.06891377  0.66934551  0.60871512    -0.91860
C614        C  0.22706919  0.78650097  0.55531699     1.17190
H615        H  0.19319224  0.77014236  0.73361848     0.33140
H616        H  0.06221422  0.75147399  0.60697349     0.43990
H617        H  0.25896106  0.90871780  0.59702479     0.37520
H618        H  0.13939008  0.91810888  0.72293699     0.34000
H619        H  0.01628300  0.63326215  0.67858305     0.25780
H620        H  0.00585513  0.87566597  0.66116475     0.31720
H621        H  0.19783427  0.02970609  0.65047634     0.37630
H622        H  0.12432173  0.64615559  0.68514305     0.32090
H623        H  0.32191318  0.81338221  0.68965288     0.30970
H624        H  0.34538104  0.92248604  0.65812073     0.32650
H625        H  0.30472406  0.03343013  0.64730554     0.31620
H626        H  0.08127498  0.69052899  0.58217209     0.35610
H627        H  0.15774900  0.80600971  0.48187764     0.28350
H628        H  0.16991362  0.87788564  0.84812066     0.32580
H629        H  0.25123997  0.03745433  0.71186240     0.35430
H630        H  0.27550894  0.77910573  0.71812775     0.28040
H631        H  0.12680740  0.75467709  0.50610719     0.40910
H632        H  0.98628513  0.75331584  0.70729587     0.30970
H633        H  0.00168409  0.67564502  0.68328949     0.38580
H634        H  0.31419131  0.98794974  0.64062811     0.30440
H635        H  0.06088377  0.92173228  0.66517166     0.30500
H636        H  0.19920878  0.92615277  0.81939223     0.30760
C637        C  0.32870054  0.88634932  0.84839339     0.00300
C638        C  0.31417094  0.90865676  0.81695108     0.00300
C639        C  0.27180760  0.64647280  0.82990619     0.02030
C640        C  0.31754681  0.69329562  0.83291245     0.02030
C641        C  0.36392220  0.69489508  0.83412585     0.02030
C642        C  0.36559280  0.64954605  0.83457145     0.02030
C643        C  0.31975356  0.60182967  0.83100463     0.02030
C644        C  0.27254338  0.60010475  0.82866022     0.02030
C645        C  0.09270356  0.66484342  0.85430485     0.00300
C646        C  0.06899768  0.68284464  0.82664468     0.00300
C647        C  0.06804950  0.93282045  0.83407187     0.00300
C648        C  0.04343878  0.88662386  0.81025133     0.00300
C649        C  0.43393564  0.64425434  0.79518480    -0.21570
C650        C  0.41585309  0.65298061  0.83536615    -0.09610
C651        C  0.44787136  0.66950549  0.87458224     0.29250
C652        C  0.49730786  0.67878144  0.87260882    -0.21570
C653        C  0.51496104  0.66912487  0.83201725    -0.09620
C654        C  0.48121595  0.64932377  0.79413984     0.29260
F655        F  0.99360301  0.63385767  0.75581578    -0.20140
H656        H  0.41180496  0.63428278  0.76397639     0.17620
H657        H  0.52189524  0.69416822  0.90257323     0.17630
F658        F  0.43187407  0.67817695  0.91441134    -0.20130
C659        C  0.21353241  0.67765563  0.80358581    -0.21570
C660        C  0.22347586  0.64706335  0.83150378    -0.09610
C661        C  0.19117953  0.62403500  0.86635202     0.29250
C662        C  0.14829448  0.62701768  0.87001184    -0.21570
C663        C  0.13972682  0.66133721  0.84524461    -0.09620
C664        C  0.17637685  0.68940858  0.81415012     0.29260
F665        F  0.18267009  0.73336554  0.80004952    -0.20140
H666        H  0.23841055  0.69748008  0.77697339     0.17620
H667        H  0.12353013  0.60318697  0.89492295     0.17630
F668        F  0.20246981  0.60139040  0.89925341    -0.20130
C669        C  0.15718289  0.47910006  0.86314105    -0.21570
C670        C  0.12238743  0.46971541  0.82779516    -0.09610
C671        C  0.13895261  0.49972470  0.78997049     0.29250
C672        C  0.18893095  0.53954614  0.78882105    -0.21570
C673        C  0.22332070  0.55059308  0.82543679    -0.09620
C674        C  0.20639674  0.51953566  0.86267634     0.29260
F675        F  0.23448510  0.53278531  0.90170347    -0.20140
H676        H  0.14544259  0.95672392  0.89270269     0.17620
H677        H  0.20013120  0.56384234  0.76044484     0.17630
F678        F  0.10622082  0.49254770  0.75550152    -0.20130
C679        C  0.43980190  0.77415426  0.86781920    -0.21570
C680        C  0.41048416  0.74463624  0.82980762    -0.09610
C681        C  0.42292502  0.76442894  0.78702589     0.29250
C682        C  0.46024663  0.81469714  0.78291828    -0.21570
C683        C  0.49275998  0.84342207  0.81997725    -0.09620
C684        C  0.48252836  0.82169687  0.86254691     0.29260
F685        F  0.01588734  0.84365958  0.89793123    -0.20140
H686        H  0.43101956  0.75939021  0.90117007     0.17620
H687        H  0.46589632  0.82970840  0.74966450     0.17630
F688        F  0.39756767  0.73546146  0.74922754    -0.20130
C689        C  0.33070357  0.49035215  0.78455189    -0.21570
C690        C  0.32232285  0.46143231  0.82285721    -0.09610
C691        C  0.31437267  0.48029140  0.86418300     0.29250
C692        C  0.31650858  0.52712755  0.86688354    -0.21570
C693        C  0.32167257  0.55402022  0.82815284    -0.09620
C694        C  0.32935726  0.53543343  0.78692703     0.29260
F695        F  0.33477004  0.56043894  0.74867728    -0.20140
H696        H  0.33654169  0.47709743  0.75212504     0.17620
H697        H  0.31246432  0.54165088  0.89922451     0.17630
F698        F  0.30158488  0.95245583  0.90143191    -0.20130
C699        C  0.29745674  0.79940926  0.87602013    -0.21570
C700        C  0.31726468  0.83335553  0.84114302    -0.09610
C701        C  0.33446522  0.81972361  0.80279535     0.29250
C702        C  0.33074004  0.77264361  0.79909033    -0.21570
C703        C  0.31706366  0.74161907  0.83608056    -0.09620
C704        C  0.29970193  0.75501136  0.87459792     0.29260
F705        F  0.28461021  0.72498259  0.91043434    -0.20140
H706        H  0.28333966  0.80894076  0.90567715     0.17620
H707        H  0.33934402  0.76091074  0.76744111     0.17630
F708        F  0.35764582  0.85303969  0.77020951    -0.20130
C709        C  0.15678292  0.66957570  0.55292581    -0.21570
C710        C  0.17528877  0.69864032  0.51477974    -0.09610
C711        C  0.14630621  0.67979937  0.47375395     0.29250
C712        C  0.10471812  0.63099694  0.46981763    -0.21570
C713        C  0.08469647  0.60354559  0.50818752    -0.09620
C714        C  0.11083590  0.62367947  0.55010009     0.29260
F715        F  0.09084471  0.60050381  0.58871754    -0.20140
H716        H  0.17677210  0.68331155  0.58538429     0.17620
H717        H  0.08642379  0.61596936  0.43694488     0.17630
F718        F  0.15523360  0.70979941  0.43840728    -0.20130
C719        C  0.37740275  0.88349337  0.53004368    -0.21570
C720        C  0.39099600  0.91506106  0.49340368    -0.09610
C721        C  0.35996373  0.89744616  0.45371696     0.29250
C722        C  0.31533100  0.85034004  0.45165663    -0.21570
C723        C  0.30186562  0.81847597  0.48812078    -0.09620
C724        C  0.33437246  0.83525325  0.52706474     0.29260
F725        F  0.32602810  0.80406030  0.56142306    -0.20140
H726        H  0.40156182  0.89539040  0.56032662     0.17620
H727        H  0.29175470  0.83816101  0.42102796     0.17630
F728        F  0.37438452  0.92411375  0.41587543    -0.20130
C729        C  0.32741338  0.01805828  0.53475289    -0.21570
C730        C  0.30365759  0.51357091  0.49232436    -0.09610
C731        C  0.32671054  0.50816932  0.45355271     0.29250
C732        C  0.37277748  0.51065070  0.45666413    -0.21570
C733        C  0.39516571  0.51291425  0.49864855    -0.09620
C734        C  0.37170050  0.01583391  0.53800981     0.29260
F735        F  0.39223132  0.01779030  0.57943528    -0.20140
H736        H  0.31270544  0.02465831  0.56528189     0.17620
H737        H  0.39066855  0.50979378  0.42588508     0.17630
F738        F  0.30443019  0.49973207  0.41209640    -0.20130
C739        C  0.15557991  0.51773612  0.54092269    -0.21570
C740        C  0.17155147  0.00249003  0.50259675    -0.09610
C741        C  0.14102357  0.98807061  0.46255908     0.29250
C742        C  0.09736445  0.99172841  0.46081170    -0.21570
C743        C  0.08161442  0.00694181  0.49964946    -0.09620
C744        C  0.11057063  0.51770415  0.54014511     0.29260
F745        F  0.09303835  0.52303417  0.58020542    -0.20140
H746        H  0.17685213  0.52717105  0.57262705     0.17620
H747        H  0.07474905  0.98075660  0.42962737     0.17630
F748        F  0.15142874  0.96727746  0.42624171    -0.20130
C749        C  0.48068856  0.62728361  0.53805095    -0.21570
C750        C  0.49230887  0.60588777  0.50102496    -0.09610
C751        C  0.00476345  0.63070894  0.46042058     0.29250
C752        C  0.01010189  0.67840661  0.45807769    -0.21570
C753        C  0.49546087  0.69878579  0.49378001    -0.09620
C754        C  0.48026942  0.67247963  0.53397574     0.29260
F755        F  0.46189470  0.68840142  0.56794054    -0.20140
H756        H  0.46985337  0.60786048  0.56930726     0.17620
H757        H  0.02155379  0.69743862  0.42668440     0.17630
F758        F  0.00880539  0.60738937  0.42222129    -0.20130
C759        C  0.00690436  0.90852736  0.53568636    -0.21570
C760        C  0.48360655  0.91394948  0.49804609    -0.09610
C761        C  0.46333694  0.87547424  0.46360816     0.29250
C762        C  0.46728070  0.83210837  0.46734145    -0.21570
C763        C  0.49467847  0.82819999  0.50413305    -0.09620
C764        C  0.01922571  0.87153786  0.53506878     0.29260
F765        F  0.06088179  0.88384744  0.56056860    -0.20140
H766        H  0.02207208  0.93744690  0.56294457     0.17620
H767        H  0.45118004  0.80435044  0.43976359     0.17630
F768        F  0.44032032  0.88001721  0.42646259    -0.20130
C769        C  0.16895869  0.71983110  0.12465294    -0.21570
C770        C  0.15515102  0.68911885  0.16190659    -0.09610
C771        C  0.14235141  0.70534089  0.20195367     0.29250
C772        C  0.14651056  0.75276573  0.20510132    -0.21570
C773        C  0.15555298  0.78050701  0.16638955    -0.09620
C774        C  0.16435192  0.76250328  0.12556857     0.29260
F775        F  0.16732278  0.78551319  0.08647700    -0.20140
H776        H  0.17958563  0.70887129  0.09354675     0.17620
H777        H  0.13916250  0.76620182  0.23671804     0.17630
F778        F  0.12184450  0.67398039  0.23636186    -0.20130
C779        C  0.14400461  0.98633997  0.21218542    -0.21570
C780        C  0.15622951  0.97062113  0.17167968    -0.09610
C781        C  0.16509137  0.00054222  0.13406573     0.29250
C782        C  0.16429421  0.54618305  0.13777928    -0.21570
C783        C  0.15292081  0.56232387  0.17874578    -0.09620
C784        C  0.14176741  0.03103689  0.21565116     0.29260
F785        F  0.12952499  0.04425213  0.25555858    -0.20140
H786        H  0.13720705  0.96442367  0.24180015     0.17620
H787        H  0.17395475  0.56962969  0.10888533     0.17630
F788        F  0.17416412  0.98559433  0.09353173    -0.20130
C789        C  0.04578319  0.75194812  0.20720542    -0.21570
C790        C  0.06235132  0.77704126  0.16675484    -0.09610
C791        C  0.04054120  0.74916993  0.12568832     0.29250
C792        C  0.00136444  0.69859311  0.12531643    -0.21570
C793        C  0.98495138  0.67278398  0.16563080    -0.09620
C794        C  0.00970857  0.69990785  0.20657449     0.29260
F795        F  0.00260810  0.67534948  0.24536254    -0.20140
H796        H  0.06409746  0.77168253  0.23914720     0.17620
H797        H  0.48500294  0.67926928  0.09296076     0.17630
F798        F  0.05908512  0.76981990  0.08574492    -0.20130
C799        C  0.32690968  0.03791018  0.14127542    -0.21570
C800        C  0.35543889  0.54947206  0.18212773    -0.09610
C801        C  0.33277371  0.01868471  0.21868415     0.29250
C802        C  0.28267310  0.97939576  0.21499725    -0.21570
C803        C  0.25386807  0.96846953  0.17451466    -0.09620
C804        C  0.27756533  0.99662130  0.13691124     0.29260
F805        F  0.25384196  0.98325635  0.09557317    -0.20140
H806        H  0.34208564  0.56188684  0.11307769     0.17620
H807        H  0.26623272  0.95686273  0.24390617     0.17360
F808        F  0.35891944  0.02738269  0.25848886    -0.20130
C809        C  0.04118058  0.88064605  0.20557783    -0.21570
C810        C  0.05952156  0.87164739  0.16555967    -0.09610
C811        C  0.02735248  0.85461447  0.12639983     0.29250
C812        C  0.97786390  0.84524722  0.12801811    -0.21570
C813        C  0.95956945  0.85437439  0.16837247    -0.09620
C814        C  0.99321558  0.87438229  0.20662604     0.29260
F815        F  0.98015772  0.88841739  0.24551412    -0.20140
H816        H  0.06362278  0.89152260  0.23676177     0.17620
H817        H  0.95343760  0.82950803  0.09798027     0.17630
F818        F  0.04324367  0.84554270  0.08674860    -0.20130
C819        C  0.26319575  0.86284054  0.12354197    -0.21570
C820        C  0.24953269  0.87117569  0.16635475    -0.09610
C821        C  0.27521559  0.86701537  0.20443098     0.29250
C822        C  0.31589270  0.85874423  0.19901126    -0.21570
C823        C  0.32830054  0.84857675  0.15568200    -0.09620
C824        C  0.29802627  0.84696417  0.11858287     0.29260
F825        F  0.30160035  0.82933956  0.07702548    -0.20140
H826        H  0.24403075  0.86507603  0.09359837     0.17620
H827        H  0.33807634  0.86150397  0.22867992     0.17630
F828        F  0.26154237  0.87163336  0.24678087    -0.20130
Zr829      Zr  0.82528918  0.18550260  0.42281803     2.17510
O830        O  0.85301448  0.22922835  0.49744588    -0.51590
O831        O  0.79329215  0.10596328  0.46256673    -0.74800
O832        O  0.76326706  0.19840883  0.45776746    -0.81580
O833        O  0.95430614  0.21421380  0.40757363    -0.83330
O834        O  0.74106639  0.23625483  0.40588198    -0.78950
O835        O  0.90326775  0.21474461  0.46133692    -0.90590
O836        O  0.74786516  0.03991531  0.41208758    -0.76550
O837        O  0.74892876  0.13467088  0.38070473    -0.86040
O838        O  0.84181789  0.12827685  0.38124500    -0.85730
O839        O  0.81872031  0.24514900  0.37637358    -0.72490
O840        O  0.89348673  0.23777641  0.37620901    -0.84620
Zr841      Zr  0.82078272  0.17945490  0.24348621     2.26420
Zr842      Zr  0.74051176  0.19272405  0.33320177     2.06270
Zr843      Zr  0.90935330  0.18011906  0.33398673     2.10050
Zr844      Zr  0.76522102  0.07681333  0.33903450     1.78760
O845        O  0.99358909  0.23937725  0.31128635    -0.93420
O846        O  0.67424870  0.02814376  0.33836804    -0.41230
O847        O  0.83328769  0.12529521  0.29171754    -0.77870
O848        O  0.75382979  0.13136513  0.29251709    -0.96550
O849        O  0.80689695  0.24010631  0.28282974    -0.89860
O850        O  0.89820434  0.23374678  0.28324498    -0.92700
C851        C  0.76547173  0.05815763  0.45212839     1.01050
C852        C  0.94532671  0.22297905  0.44825204     1.13980
C853        C  0.75188614  0.23125235  0.44706881     1.04760
O854        O  0.65448880  0.14185944  0.35563078    -0.94850
O855        O  0.69151412  0.15550901  0.26028621    -0.90600
O856        O  0.74469386  0.16117034  0.20565647    -0.83740
C857        C  0.70132127  0.14798849  0.21925894     1.11400
O858        O  0.93665958  0.38275402  0.33985279    -0.96830
Zr859      Zr  0.88289868  0.29138084  0.32540794     1.88940
O860        O  0.85852817  0.25357676  0.19829351    -0.73480
O861        O  0.71942751  0.25506735  0.30881980    -0.52740
O862        O  0.84627146  0.34214921  0.34910674    -0.97420
O863        O  0.97248493  0.33259582  0.34398834    -0.54630
O864        O  0.88892177  0.31991402  0.24947331    -0.73990
C865        C  0.88055809  0.30115449  0.20890829     0.98350
O866        O  0.78456860  0.12455337  0.17484172    -0.62810
O867        O  0.93980456  0.12336062  0.35278075    -0.57620
O868        O  0.87654811  0.15675657  0.20827775    -0.94300
O869        O  0.90915243  0.13337183  0.26529839    -0.92720
O870        O  0.78994032  0.01342184  0.32867548    -0.93080
O871        O  0.73024776  0.01829829  0.27337141    -0.91860
C872        C  0.89780741  0.13352622  0.22333102     1.17190
H873        H  0.85065192  0.10884321  0.40035644     0.33140
H874        H  0.72498012  0.10582017  0.27514220     0.43990
H875        H  0.92551476  0.25046194  0.26321115     0.37520
H876        H  0.82281674  0.27260983  0.39637735     0.34000
H877        H  0.66566764  0.99263820  0.34212733     0.25780
H878        H  0.68349897  0.23994005  0.31475073     0.31720
H879        H  0.83080890  0.34574073  0.32098796     0.37630
H880        H  0.75972280  0.98064348  0.33453072     0.32090
H881        H  0.97666966  0.14493117  0.35372120     0.30970
H882        H  0.01601845  0.23801766  0.33468083     0.32650
H883        H  0.98784583  0.33450123  0.31455403     0.31620
H884        H  0.74490674  0.04007402  0.24751077     0.35610
H885        H  0.80907775  0.14010197  0.15100791     0.28350
H886        H  0.82552359  0.21029504  0.51805716     0.32580
H887        H  0.93248310  0.39842421  0.31267995     0.35430
H888        H  0.93123436  0.11539980  0.38463833     0.28040
H889        H  0.78386121  0.09265134  0.18110403     0.40910
H890        H  0.65632168  0.12364173  0.38189651     0.30970
H891        H  0.66531001  0.03857179  0.36708358     0.38580
H892        H  0.97792579  0.30817879  0.36053387     0.30440
H893        H  0.73663540  0.28398242  0.33140032     0.30500
H894        H  0.85476688  0.26214474  0.49422584     0.30760
C895        C  0.70232076  0.37431118  0.16969261     0.02030
C896        C  0.70321068  0.42123306  0.17008516     0.02030
C897        C  0.65659954  0.42154450  0.16870412     0.02030
C898        C  0.60954354  0.37411769  0.16652946     0.02030
C899        C  0.60982587  0.32782923  0.16725924     0.02030
C900        C  0.65581789  0.32867401  0.16842124     0.02030
C901        C  0.66073302  0.11509409  0.18570710     0.00300
C902        C  0.64416342  0.13632701  0.15530969     0.00300
C903        C  0.87867879  0.35338698  0.14645668     0.00300
C904        C  0.90445128  0.33726832  0.17303231     0.00300
C905        C  0.90316768  0.09966846  0.19035415     0.00300
C906        C  0.94359972  0.11740032  0.16355189     0.00300
C907        C  0.98444651  0.23963002  0.48385377     0.00300
C908        C  0.00085894  0.28262116  0.51156304     0.00300
C909        C  0.75921926  0.02110626  0.48665202     0.00300
C910        C  0.71502789  0.49376596  0.50834087     0.00300
C911        C  0.53333849  0.00831070  0.49908652     0.02030
C912        C  0.98558069  0.46275778  0.49499955     0.02030
C913        C  0.94038754  0.46385479  0.49541953     0.02030
C914        C  0.94254120  0.01109711  0.50021744     0.02030
C915        C  0.98989423  0.05657516  0.50346082     0.02030
C916        C  0.53515973  0.05529009  0.50417602     0.02030
C917        C  0.72262989  0.24977455  0.51866379     0.00300
C918        C  0.75521005  0.26680821  0.48440119     0.00300
Zr919      Zr  0.98191222  0.00801473  0.91067995     2.17510
O920        O  0.96008297  0.00916617  0.83096809    -0.51590
O921        O  0.51952255  0.96744902  0.86477791    -0.74800
O922        O  0.52791089  0.08951198  0.87871294    -0.81580
O923        O  0.86405062  0.39141683  0.92185636    -0.83330
O924        O  0.58505056  0.14571295  0.93178430    -0.78950
O925        O  0.89815735  0.46079919  0.88035323    -0.90590
O926        O  0.55966097  0.44194449  0.91213807    -0.76550
O927        O  0.55916187  0.03469668  0.95052047    -0.86040
O928        O  0.96908682  0.43462875  0.94747988    -0.85730
O929        O  0.49381862  0.07694747  0.96187060    -0.72490
O930        O  0.91371106  0.98626581  0.95950842    -0.84620
Zr931      Zr  0.49345141  0.00884135  0.08887024     2.26420
Zr932      Zr  0.57090156  0.10235233  0.00280740     2.06270
Zr933      Zr  0.90306458  0.41472304  0.99808338     2.10050
Zr934      Zr  0.54567017  0.46130688  0.98806086     1.78760
O935        O  0.81786859  0.39446218  0.01115598    -0.93420
O936        O  0.63607783  0.00172185  0.98358217    -0.41230
O937        O  0.97962410  0.43916079  0.03876999    -0.77870
O938        O  0.56092769  0.02964055  0.03945611    -0.96550
O939        O  0.50425100  0.08120056  0.05214660    -0.89860
O940        O  0.91536149  0.98185297  0.05056980    -0.92700
C941        C  0.54627631  0.44703791  0.87253541     1.01050
C942        C  0.86530696  0.41493057  0.88622573     1.13980
C943        C  0.56495770  0.13283362  0.89135137     1.04760
O944        O  0.65889706  0.13580266  0.98889446    -0.94850
O945        O  0.61235796  0.12427642  0.07893349    -0.90600
O946        O  0.56925387  0.06493763  0.12964396    -0.83740
C947        C  0.60674330  0.10622328  0.11864092     1.11400
O948        O  0.88812766  0.07450430  0.95095200    -0.96830
Zr949      Zr  0.92717468  0.05377919  0.01191398     1.88940
O950        O  0.96760169  0.05947084  0.13449324    -0.73480
O951        O  0.58779307  0.18746724  0.02391206    -0.52740
O952        O  0.95383337  0.14348899  0.00889950    -0.97420
O953        O  0.83728168  0.01150148  0.02199873    -0.54630
O954        O  0.92697023  0.08532243  0.08779299    -0.73990
C955        C  0.94519260  0.08422191  0.12657390     0.98350
O956        O  0.52937953  0.48920400  0.15368327    -0.62810
O957        O  0.87338265  0.32468914  0.98400151    -0.57620
O958        O  0.93383027  0.43522657  0.12533200    -0.94300
O959        O  0.89484296  0.37344416  0.06943236    -0.92720
O960        O  0.51337206  0.37031412  0.98834472    -0.93080
O961        O  0.58477164  0.43956555  0.04793258    -0.91860
C962        C  0.90512892  0.38924520  0.11132237     1.17190
H963        H  0.96030335  0.40627784  0.92631654     0.33140
H964        H  0.59114152  0.03739131  0.05616222     0.43990
H965        H  0.88894402  0.47064643  0.07171905     0.37520
H966        H  0.49475128  0.10462851  0.94646465     0.34000
H967        H  0.64212200  0.47393442  0.97427206     0.25780
H968        H  0.62051395  0.21046944  0.01113111     0.31720
H969        H  0.92772695  0.14733732  0.02413447     0.37630
H970        H  0.54279261  0.36642664  0.98378740     0.32090
H971        H  0.83679896  0.30859909  0.97860454     0.30970
H972        H  0.79664836  0.36544321  0.98960071     0.32650
H973        H  0.83093933  0.03908985  0.03125069     0.31620
H974        H  0.57245154  0.44712472  0.07604727     0.35610
H975        H  0.50641287  0.48150624  0.17883914     0.28350
H976        H  0.99134991  0.02178641  0.81450275     0.32580
H977        H  0.86767450  0.08703185  0.96548894     0.35430
H978        H  0.88607812  0.32213246  0.95415983     0.28040
H979        H  0.52751276  0.45678835  0.14481570     0.40910
H980        H  0.66661086  0.11098413  0.00173770     0.30970
H981        H  0.64426704  0.02276206  0.95691940     0.38580
H982        H  0.83121011  0.99188633  0.04935151     0.30440
H983        H  0.56335333  0.19158962  0.00535244     0.30500
H984        H  0.95122090  0.03595685  0.82886048     0.30760
Zr985      Zr  0.65940769  0.34124386  0.75476878     2.17510
O986        O  0.69556208  0.39278876  0.82512082    -0.51590
O987        O  0.61295084  0.26453548  0.79693467    -0.74800
O988        O  0.60618085  0.36805933  0.79044086    -0.81580
O989        O  0.79029305  0.37938543  0.73899024    -0.83330
O990        O  0.55135505  0.36186764  0.73527062    -0.78950
O991        O  0.73236288  0.35116510  0.79271214    -0.90590
O992        O  0.58969220  0.19586447  0.74916534    -0.76550
O993        O  0.58447889  0.28176095  0.71397375    -0.86040
O994        O  0.68177587  0.28725513  0.71434209    -0.85730
O995        O  0.64359019  0.39311052  0.70600030    -0.72490
O996        O  0.72714809  0.39285837  0.70722427    -0.84620
Zr997      Zr  0.65635294  0.33267747  0.57645601     2.26420
Zr998      Zr  0.56874008  0.33257028  0.66378881     2.06270
Zr999      Zr  0.74729300  0.33751570  0.66533457     2.10050
Zr1000     Zr  0.60738014  0.22840132  0.67358195     1.78760
O1001       O  0.82899345  0.39339316  0.63561912    -0.93420
O1002       O  0.51943211  0.16330317  0.66399684    -0.41230
O1003       O  0.67182043  0.27964609  0.62424025    -0.77870
O1004       O  0.59042936  0.27792678  0.62444435    -0.96550
O1005       O  0.63528396  0.38710584  0.61659103    -0.89860
O1006       O  0.73206067  0.39020205  0.61705343    -0.92700
C1007       C  0.59295906  0.21645837  0.78861261     1.01050
C1008       C  0.77714603  0.37675484  0.78044450     1.13980
C1009       C  0.56926218  0.37220198  0.77632450     1.04760
O1010       O  0.48348611  0.26758637  0.67863693    -0.94850
O1011       O  0.52393884  0.29832031  0.58979829    -0.90600
O1012       O  0.57770559  0.29877918  0.53797953    -0.83740
C1013       C  0.53531965  0.29114424  0.54941278     1.11400
O1014       O  0.73724053  0.50340568  0.72411533    -0.96830
Zr1015     Zr  0.71049707  0.44386365  0.65887109     1.88940
O1016       O  0.68492835  0.41036232  0.53474504    -0.73480
O1017       O  0.53855126  0.39004749  0.64688705    -0.52740
O1018       O  0.67089152  0.49522249  0.65720710    -0.97420
O1019       O  0.80041885  0.50294437  0.66192878    -0.54630
O1020       O  0.72362571  0.47825065  0.58473880    -0.73990
C1021       C  0.70893880  0.45848382  0.54453341     0.98350
O1022       O  0.62964345  0.28797144  0.50211220    -0.62810
O1023       O  0.78563708  0.28847056  0.68681683    -0.57620
O1024       O  0.71999831  0.32179393  0.54347590    -0.94300
O1025       O  0.73457778  0.28108667  0.59730477    -0.92720
O1026       O  0.64962795  0.17968281  0.67473308    -0.93080
O1027       O  0.56891172  0.16934263  0.60871740    -0.91860
C1028       C  0.72706944  0.28649964  0.55531940     1.17190
H1029       H  0.69318851  0.27013970  0.73362319     0.33140
H1030       H  0.56221372  0.25147191  0.60697441     0.43990
H1031       H  0.75896082  0.40871520  0.59702764     0.37520
H1032       H  0.63938860  0.41810658  0.72293770     0.34000
H1033       H  0.51628379  0.13325807  0.67858620     0.25780
H1034       H  0.50585240  0.37566149  0.66116555     0.31720
H1035       H  0.69783296  0.52970339  0.65047857     0.37630
H1036       H  0.62432323  0.14615445  0.68514399     0.32090
H1037       H  0.82191016  0.31337685  0.68965629     0.30970
H1038       H  0.84537667  0.42248663  0.65811975     0.32650
H1039       H  0.80472225  0.53342829  0.64730719     0.31620
H1040       H  0.58127311  0.19052588  0.58217425     0.35610
H1041       H  0.65774949  0.30600412  0.48188039     0.28350
H1042       H  0.66990845  0.37787981  0.84812293     0.32580
H1043       H  0.75123718  0.53745056  0.71186521     0.35430
H1044       H  0.77550590  0.27910222  0.71813189     0.28040
H1045       H  0.62680476  0.25467271  0.50611096     0.40910
H1046       H  0.48628417  0.25331393  0.70729775     0.30970
H1047       H  0.50168241  0.17563957  0.68328707     0.38580
H1048       H  0.81419030  0.48794840  0.64062983     0.30440
H1049       H  0.56088076  0.42172846  0.66517134     0.30500
H1050       H  0.69920690  0.42614797  0.81939633     0.30760
C1051       C  0.82870131  0.38635039  0.84839442     0.00300
C1052       C  0.81417115  0.40865732  0.81695220     0.00300
C1053       C  0.77180732  0.14647355  0.82990932     0.02030
C1054       C  0.81754671  0.19329616  0.83291545     0.02030
C1055       C  0.86392189  0.19489514  0.83412857     0.02030
C1056       C  0.86559189  0.14954575  0.83457402     0.02030
C1057       C  0.81975245  0.10182959  0.83100683     0.02030
C1058       C  0.77254267  0.10010532  0.82866282     0.02030
C1059       C  0.59270247  0.16484274  0.85430777     0.00300
C1060       C  0.56899645  0.18284332  0.82664703     0.00300
C1061       C  0.56804961  0.43282067  0.83407059     0.00300
C1062       C  0.54343826  0.38662343  0.81025112     0.00300
C1063       C  0.93393407  0.14425410  0.79518669    -0.21570
C1064       C  0.91585173  0.15297961  0.83536842    -0.09610
C1065       C  0.94786969  0.16950287  0.87458463     0.29250
C1066       C  0.99730578  0.17877772  0.87261101    -0.21570
C1067       C  0.01495871  0.16912157  0.83201905    -0.09620
C1068       C  0.98121379  0.14932234  0.79414144     0.29260
F1069       F  0.49360272  0.13386053  0.75581682    -0.20140
H1070       H  0.91180363  0.13428397  0.76397826     0.17620
H1071       H  0.02189308  0.19416346  0.90257553     0.17630
F1072       F  0.93187255  0.17817393  0.91441398    -0.20130
C1073       C  0.71353204  0.17765630  0.80358933    -0.21570
C1074       C  0.72347580  0.14706436  0.83150741    -0.09610
C1075       C  0.69118003  0.12403653  0.86635610     0.29250
C1076       C  0.64829498  0.12701915  0.87001623    -0.21570
C1077       C  0.63972651  0.16133771  0.84524830    -0.09620
C1078       C  0.67637636  0.18940905  0.81415354     0.29260
F1079       F  0.68266941  0.23336583  0.80005249    -0.20140
H1080       H  0.73840995  0.19748053  0.77697669     0.17620
H1081       H  0.62353114  0.10318896  0.89492786     0.17630
F1082       F  0.70247081  0.10139231  0.89925749    -0.20130
C1083       C  0.65718190  0.97910065  0.86314258    -0.21570
C1084       C  0.62238697  0.96971603  0.82779621    -0.09610
C1085       C  0.63895252  0.99972559  0.78997173     0.29250
C1086       C  0.68893080  0.03954719  0.78882288    -0.21570
C1087       C  0.72331993  0.05059400  0.82543909    -0.09620
C1088       C  0.70639554  0.01953658  0.86267856     0.29260
F1089       F  0.73448332  0.03278625  0.90170604    -0.20140
H1090       H  0.64544363  0.45672325  0.89269981     0.17620
H1091       H  0.70013145  0.06384356  0.76044679     0.17630
F1092       F  0.60622116  0.99254862  0.75550238    -0.20130
C1093       C  0.93980291  0.27415403  0.86782092    -0.21570
C1094       C  0.91048410  0.24463603  0.82980977    -0.09610
C1095       C  0.92292422  0.26442850  0.78702788     0.29250
C1096       C  0.96024574  0.31469667  0.78291981    -0.21570
C1097       C  0.99275986  0.34342175  0.81997831    -0.09620
C1098       C  0.98252930  0.32169661  0.86254802     0.29260
F1099       F  0.51588848  0.34365978  0.89793147    -0.20140
H1100       H  0.93102145  0.25938999  0.90117185     0.17620
H1101       H  0.96589490  0.32970772  0.74966597     0.17630
F1102       F  0.89756632  0.23546079  0.74922980    -0.20130
C1103       C  0.83070151  0.99035188  0.78455236    -0.21570
C1104       C  0.82232001  0.96143111  0.82285717    -0.09610
C1105       C  0.81436912  0.98028941  0.86418307     0.29250
C1106       C  0.81650541  0.02712574  0.86688430    -0.21570
C1107       C  0.82167074  0.05401967  0.82815420    -0.09620
C1108       C  0.82935558  0.03543340  0.78692815     0.29260
F1109       F  0.83476906  0.06043970  0.74867880    -0.20140
H1110       H  0.83654030  0.97709800  0.75212541     0.17620
H1111       H  0.81246057  0.04164830  0.89922537     0.17630
F1112       F  0.80158842  0.45245937  0.90143308    -0.20130
C1113       C  0.79745760  0.29941076  0.87602229    -0.21570
C1114       C  0.81726520  0.33335645  0.84114471    -0.09610
C1115       C  0.83446527  0.31972387  0.80279713     0.29250
C1116       C  0.83073987  0.27264375  0.79909260    -0.21570
C1117       C  0.81706392  0.24161982  0.83608323    -0.09620
C1118       C  0.79970267  0.25501278  0.87460055     0.29260
F1119       F  0.78461125  0.22498456  0.91043735    -0.20140
H1120       H  0.78334085  0.30894278  0.90567925     0.17620
H1121       H  0.83934325  0.26091029  0.76744338     0.17630
F1122       F  0.85764561  0.35303941  0.77021086    -0.20130
C1123       C  0.65678157  0.16957432  0.55292601    -0.21570
C1124       C  0.67528852  0.19863984  0.51478059    -0.09610
C1125       C  0.64630651  0.17980025  0.47375441     0.29250
C1126       C  0.60471817  0.13099803  0.46981691    -0.21570
C1127       C  0.58469573  0.10354552  0.50818606    -0.09620
C1128       C  0.61083427  0.12367836  0.55009916     0.29260
F1129       F  0.59084205  0.10050182  0.58871601    -0.20140
H1130       H  0.67677012  0.18330925  0.58538484     0.17620
H1131       H  0.58642425  0.11597158  0.43694385     0.17630
F1132       F  0.65523448  0.20980156  0.43840865    -0.20130
C1133       C  0.87740335  0.38349257  0.53004690    -0.21570
C1134       C  0.89099655  0.41506105  0.49340744    -0.09610
C1135       C  0.85996408  0.39744693  0.45372081     0.29250
C1136       C  0.81533147  0.35034065  0.45165997    -0.21570
C1137       C  0.80186616  0.31847580  0.48812356    -0.09620
C1138       C  0.83437298  0.33525247  0.52706751     0.29260
F1139       F  0.82602853  0.30405891  0.56142534    -0.20140
H1140       H  0.90156246  0.39538904  0.56032978     0.17620
H1141       H  0.79175508  0.33816216  0.42103137     0.17630
F1142       F  0.87438444  0.42411558  0.41587983    -0.20130
C1143       C  0.82741175  0.51805460  0.53475501    -0.21570
C1144       C  0.80365745  0.01357192  0.49232205    -0.09610
C1145       C  0.82670758  0.00816605  0.45355032     0.29250
C1146       C  0.87277474  0.01064778  0.45666089    -0.21570
C1147       C  0.89516512  0.01291443  0.49864508    -0.09620
C1148       C  0.87169908  0.51583068  0.53801250     0.29260
F1149       F  0.89222813  0.51778450  0.57943821    -0.20140
H1150       H  0.81270217  0.52465190  0.56528409     0.17620
H1151       H  0.89066426  0.00978874  0.42588150     0.17630
F1152       F  0.80442377  0.99972375  0.41209501    -0.20130
C1153       C  0.65557993  0.01773809  0.54091960    -0.21570
C1154       C  0.67155115  0.50248834  0.50259895    -0.09610
C1155       C  0.64102285  0.48806893  0.46256152     0.29250
C1156       C  0.59736423  0.49172762  0.46081441    -0.21570
C1157       C  0.58161510  0.50694204  0.49965219    -0.09620
C1158       C  0.61056991  0.01770453  0.54014197     0.29260
F1159       F  0.59303693  0.02303328  0.58020231    -0.20140
H1160       H  0.67685199  0.02717318  0.57262406     0.17620
H1161       H  0.57474845  0.48075566  0.42963031     0.17630
F1162       F  0.65142726  0.46727522  0.42624403    -0.20130
C1163       C  0.98068917  0.12728373  0.53804799    -0.21570
C1164       C  0.99230865  0.10588774  0.50102160    -0.09610
C1165       C  0.50476309  0.13070895  0.46041791     0.29250
C1166       C  0.51010237  0.17840699  0.45807541    -0.21570
C1167       C  0.99546203  0.19878643  0.49377769    -0.09620
C1168       C  0.98027041  0.17247994  0.53397323     0.29260
F1169       F  0.96189585  0.18840156  0.56793830    -0.20140
H1170       H  0.96985432  0.10786063  0.56930430     0.17620
H1171       H  0.52155455  0.19743927  0.42668229     0.17630
F1172       F  0.50880490  0.10738941  0.42221852    -0.20130
C1173       C  0.50690580  0.40852729  0.53568837    -0.21570
C1174       C  0.98360729  0.41394964  0.49804941    -0.09610
C1175       C  0.96333825  0.37547541  0.46361064     0.29250
C1176       C  0.96728245  0.33210974  0.46734271    -0.21570
C1177       C  0.99468031  0.32820068  0.50413383    -0.09620
C1178       C  0.51922750  0.37153801  0.53506967     0.29260
F1179       F  0.56088372  0.38384718  0.56056911    -0.20140
H1180       H  0.52207371  0.43744649  0.56294689     0.17620
H1181       H  0.95118199  0.30435258  0.43976429     0.17630
F1182       F  0.94032209  0.38001937  0.42646520    -0.20130
C1183       C  0.66895724  0.21982836  0.12465342    -0.21570
C1184       C  0.65514823  0.18911713  0.16190783    -0.09610
C1185       C  0.64234974  0.20534146  0.20195423     0.29250
C1186       C  0.64651036  0.25276701  0.20510016    -0.21570
C1187       C  0.65555309  0.28050686  0.16638739    -0.09620
C1188       C  0.66435191  0.26250140  0.12556732     0.29260
F1189       F  0.66732345  0.28551005  0.08647485    -0.20140
H1190       H  0.67958391  0.20886702  0.09354787     0.17620
H1191       H  0.63916290  0.26620469  0.23671632     0.17630
F1192       F  0.62184262  0.17398258  0.23636345    -0.20130
C1193       C  0.64400403  0.48633953  0.21218145    -0.21570
C1194       C  0.65622995  0.47062134  0.17167594    -0.09610
C1195       C  0.66509462  0.50054413  0.13406277     0.29250
C1196       C  0.66428934  0.04618063  0.13778325    -0.21570
C1197       C  0.65291665  0.06232186  0.17874991    -0.09620
C1198       C  0.64176805  0.53103709  0.21564771     0.29260
F1199       F  0.62952466  0.54425165  0.25555492    -0.20140
H1200       H  0.63720507  0.46442243  0.24179577     0.17620
H1201       H  0.67394850  0.06962652  0.10888887     0.17630
F1202       F  0.67416945  0.48559756  0.09352911    -0.20130
C1203       C  0.54578343  0.25194889  0.20720270    -0.21570
C1204       C  0.56235118  0.27704105  0.16675163    -0.09610
C1205       C  0.54054047  0.24916877  0.12568559     0.29250
C1206       C  0.50136398  0.19859176  0.12531465    -0.21570
C1207       C  0.48495149  0.17278359  0.16562960    -0.09620
C1208       C  0.50970899  0.19990862  0.20657280     0.29260
F1209       F  0.50260913  0.17535141  0.24536148    -0.20140
H1210       H  0.56409789  0.27168412  0.23914417     0.17620
H1211       H  0.98500056  0.17926846  0.09295911     0.17630
F1212       F  0.55908330  0.26981817  0.08574173    -0.20130
C1213       C  0.82691133  0.53790902  0.14127360    -0.21570
C1214       C  0.85543826  0.04947363  0.18212829    -0.09610
C1215       C  0.83277129  0.51868493  0.21868363     0.29250
C1216       C  0.78267064  0.47939632  0.21499537    -0.21570
C1217       C  0.75386776  0.46846936  0.17451141    -0.09620
C1218       C  0.77756701  0.49662022  0.13690817     0.29260
F1219       F  0.75384540  0.48325469  0.09556927    -0.20140
H1220       H  0.84208181  0.06188841  0.11307924     0.17620
H1221       H  0.76622862  0.45686384  0.24390423     0.17360
F1222       F  0.85891478  0.52738315  0.25848972    -0.20130
C1223       C  0.54118123  0.38064527  0.20557552    -0.21570
C1224       C  0.55952180  0.37164739  0.16555675    -0.09610
C1225       C  0.52735250  0.35461525  0.12639713     0.29250
C1226       C  0.47786423  0.34524869  0.12801606    -0.21570
C1227       C  0.45957041  0.35437572  0.16837091    -0.09620
C1228       C  0.49321665  0.37438234  0.20662442     0.29260
F1229       F  0.48015932  0.38841696  0.24551310    -0.20140
H1230       H  0.56362344  0.39152058  0.23675937     0.17620
H1231       H  0.45343768  0.32951015  0.09797833     0.17630
F1232       F  0.54324310  0.34554336  0.08674557    -0.20130
C1233       C  0.76319586  0.36283984  0.12353858    -0.21570
C1234       C  0.74953271  0.37117596  0.16635098    -0.09610
C1235       C  0.77521637  0.36701796  0.20442777     0.29250
C1236       C  0.81589429  0.35874809  0.19900893    -0.21570
C1237       C  0.82830247  0.34857988  0.15568012    -0.09620
C1238       C  0.79802773  0.34696516  0.11858045     0.29260
F1239       F  0.80160287  0.32934038  0.07702347    -0.20140
H1240       H  0.74403038  0.36507381  0.09359460     0.17620
H1241       H  0.83807838  0.36150946  0.22867784     0.17630
F1242       F  0.76154309  0.37163702  0.24677736    -0.20130
Zr1243     Zr  0.82528778  0.68550018  0.42281849     2.17510
O1244       O  0.85301129  0.72922521  0.49744676    -0.51590
O1245       O  0.79329095  0.60596151  0.46256793    -0.74800
O1246       O  0.76326566  0.69840806  0.45776602    -0.81580
O1247       O  0.95430398  0.71420949  0.40757580    -0.83330
O1248       O  0.74106761  0.73625544  0.40587975    -0.78950
O1249       O  0.90326602  0.71474316  0.46133814    -0.90590
O1250       O  0.74786367  0.53991326  0.41208915    -0.76550
O1251       O  0.74892754  0.63467021  0.38070444    -0.86040
O1252       O  0.84181495  0.62827247  0.38124664    -0.85730
O1253       O  0.81872201  0.74514767  0.37637316    -0.72490
O1254       O  0.89348669  0.73777173  0.37620994    -0.84620
Zr1255     Zr  0.82078475  0.67945176  0.24348688     2.26420
Zr1256     Zr  0.74051397  0.69272443  0.33320004     2.06270
Zr1257     Zr  0.90935177  0.68011260  0.33398894     2.10050
Zr1258     Zr  0.76521808  0.57681056  0.33903568     1.78760
O1259       O  0.99358964  0.73936710  0.31129089    -0.93420
O1260       O  0.67424561  0.52814776  0.33837157    -0.41230
O1261       O  0.83328621  0.62529034  0.29171910    -0.77870
O1262       O  0.75383028  0.63136353  0.29251676    -0.96550
O1263       O  0.80690087  0.74010503  0.28282923    -0.89860
O1264       O  0.89820610  0.73374174  0.28324657    -0.92700
C1265       C  0.76547069  0.55815584  0.45212981     1.01050
C1266       C  0.94532478  0.72297657  0.44825372     1.13980
C1267       C  0.75188604  0.73125242  0.44706686     1.04760
O1268       O  0.65448962  0.64186303  0.35562636    -0.94850
O1269       O  0.69151835  0.65551036  0.26028331    -0.90600
O1270       O  0.74469891  0.66117174  0.20565440    -0.83740
C1271       C  0.70132614  0.64799012  0.21925619     1.11400
O1272       O  0.93667187  0.88275030  0.33985036    -0.96830
Zr1273     Zr  0.88290226  0.79137775  0.32540837     1.88940
O1274       O  0.85852946  0.75357379  0.19829414    -0.73480
O1275       O  0.71943474  0.75507072  0.30881625    -0.52740
O1276       O  0.84628195  0.84215138  0.34911087    -0.97420
O1277       O  0.97248871  0.83258798  0.34398601    -0.54630
O1278       O  0.88892112  0.81991077  0.24947412    -0.73990
C1279       C  0.88055778  0.80115146  0.20890904     0.98350
O1280       O  0.78456952  0.62454385  0.17484614    -0.62810
O1281       O  0.93979797  0.62335075  0.35278599    -0.57620
O1282       O  0.87655412  0.65675907  0.20827876    -0.94300
O1283       O  0.90915072  0.63336646  0.26529952    -0.92720
O1284       O  0.78992925  0.51341284  0.32867580    -0.93080
O1285       O  0.73024296  0.51829338  0.27337417    -0.91860
C1286       C  0.89780902  0.63352444  0.22333186     1.17190
H1287       H  0.85064807  0.60883842  0.40035842     0.33140
H1288       H  0.72498075  0.60581921  0.27514127     0.43990
H1289       H  0.92551698  0.75045616  0.26321307     0.37520
H1290       H  0.82281838  0.77260848  0.39637688     0.34000
H1291       H  0.66566159  0.49264089  0.34212821     0.25780
H1292       H  0.68350652  0.73994580  0.31474750     0.31720
H1293       H  0.83081878  0.84574418  0.32099311     0.37630
H1294       H  0.75971202  0.48063692  0.33453755     0.32090
H1295       H  0.97666325  0.64491900  0.35372434     0.30970
H1296       H  0.01601730  0.73800565  0.33468603     0.32650
H1297       H  0.98784793  0.83448859  0.31455161     0.31620
H1298       H  0.74490255  0.54006811  0.24751306     0.35610
H1299       H  0.80907746  0.64009087  0.15101116     0.28350
H1300       H  0.82551975  0.71029176  0.51805740     0.32580
H1301       H  0.93248791  0.89842176  0.31268186     0.35430
H1302       H  0.93122956  0.61539342  0.38464443     0.28040
H1303       H  0.78386418  0.59264345  0.18111119     0.40910
H1304       H  0.65632042  0.62364449  0.38189231     0.30970
H1305       H  0.66530924  0.53857521  0.36708873     0.38580
H1306       H  0.97792776  0.80817141  0.36053434     0.30440
H1307       H  0.73664435  0.78398628  0.33139609     0.30500
H1308       H  0.85476398  0.76214173  0.49422665     0.30760
C1309       C  0.70232066  0.87431150  0.16969857     0.02030
C1310       C  0.70321025  0.92123326  0.17009079     0.02030
C1311       C  0.65659883  0.92154435  0.16870964     0.02030
C1312       C  0.60954301  0.87411742  0.16653468     0.02030
C1313       C  0.60982573  0.82782921  0.16726487     0.02030
C1314       C  0.65581785  0.82867424  0.16842702     0.02030
C1315       C  0.66073831  0.61509644  0.18570374     0.00300
C1316       C  0.64416823  0.63632977  0.15530733     0.00300
C1317       C  0.87867722  0.85338487  0.14645853     0.00300
C1318       C  0.90445014  0.83726585  0.17303329     0.00300
C1319       C  0.90316879  0.59966712  0.19035398     0.00300
C1320       C  0.94360081  0.61739979  0.16355151     0.00300
C1321       C  0.98444460  0.73962866  0.48385545     0.00300
C1322       C  0.00085677  0.78262053  0.51156365     0.00300
C1323       C  0.75921892  0.52110482  0.48665350     0.00300
C1324       C  0.71502818  0.99376737  0.50833925     0.00300
C1325       C  0.53333923  0.50831105  0.49908883     0.02030
C1326       C  0.98558006  0.96275774  0.49499496     0.02030
C1327       C  0.94038698  0.96385492  0.49541510     0.02030
C1328       C  0.94254172  0.51109698  0.50022171     0.02030
C1329       C  0.98989473  0.55657514  0.50346497     0.02030
C1330       C  0.53516047  0.55529046  0.50417793     0.02030
C1331       C  0.72263015  0.74977526  0.51866203     0.00300
C1332       C  0.75520989  0.76680858  0.48439904     0.00300
Zr1333     Zr  0.98191486  0.50801716  0.91067824     2.17510
O1334       O  0.96008608  0.50916789  0.83096611    -0.51590
O1335       O  0.51952449  0.46745089  0.86477788    -0.74800
O1336       O  0.52791245  0.58951393  0.87871166    -0.81580
O1337       O  0.86404814  0.89141504  0.92185703    -0.83330
O1338       O  0.58505343  0.64571487  0.93178223    -0.78950
O1339       O  0.89815487  0.96079796  0.88035465    -0.90590
O1340       O  0.55966093  0.94194471  0.91213804    -0.76550
O1341       O  0.55916406  0.53469773  0.95051943    -0.86040
O1342       O  0.96908417  0.93462627  0.94748139    -0.85730
O1343       O  0.49382270  0.57695108  0.96186950    -0.72490
O1344       O  0.91371394  0.48626844  0.95950697    -0.84620
Zr1345     Zr  0.49345456  0.50884549  0.08886956     2.26420
Zr1346     Zr  0.57090570  0.60235472  0.00280559     2.06270
Zr1347     Zr  0.90306164  0.91472036  0.99808468     2.10050
Zr1348     Zr  0.54566950  0.96130592  0.98806105     1.78760
O1349       O  0.81786543  0.89445918  0.01115664    -0.93420
O1350       O  0.63607819  0.50171931  0.98358180    -0.41230
O1351       O  0.97962126  0.93915888  0.03877156    -0.77870
O1352       O  0.56093018  0.52964272  0.03945511    -0.96550
O1353       O  0.50425586  0.58120518  0.05214541    -0.89860
O1354       O  0.91536470  0.48185577  0.05056832    -0.92700
C1355       C  0.54627552  0.94703729  0.87253537     1.01050
C1356       C  0.86530462  0.91492916  0.88622654     1.13980
C1357       C  0.56495969  0.63283547  0.89134959     1.04760
O1358       O  0.65889996  0.63580025  0.98889020    -0.94850
O1359       O  0.61236338  0.62427924  0.07893105    -0.90600
O1360       O  0.56925767  0.56494187  0.12964226    -0.83740
C1361       C  0.60674802  0.60622651  0.11863869     1.11400
O1362       O  0.88813258  0.57450893  0.95095062    -0.96830
Zr1363     Zr  0.92717828  0.55378212  0.01191254     1.88940
O1364       O  0.96760363  0.55947133  0.13449216    -0.73480
O1365       O  0.58780288  0.68747174  0.02390979    -0.52740
O1366       O  0.95383818  0.64349234  0.00889948    -0.97420
O1367       O  0.83728503  0.51150481  0.02199537    -0.54630
O1368       O  0.92697280  0.58532371  0.08779201    -0.73990
C1369       C  0.94519441  0.58422229  0.12657304     0.98350
O1370       O  0.52937657  0.98919960  0.15368365    -0.62810
O1371       O  0.87337971  0.82468651  0.98400252    -0.57620
O1372       O  0.93382729  0.93522460  0.12533360    -0.94300
O1373       O  0.89484121  0.87344186  0.06943398    -0.92720
O1374       O  0.51337506  0.87031381  0.98834454    -0.93080
O1375       O  0.58477137  0.93956450  0.04793231    -0.91860
C1376       C  0.90512687  0.88924305  0.11132403     1.17190
H1377       H  0.96030097  0.90627548  0.92631800     0.33140
H1378       H  0.59114388  0.53739295  0.05616112     0.43990
H1379       H  0.88894078  0.97064344  0.07172050     0.37520
H1380       H  0.49475553  0.60463221  0.94646358     0.34000
H1381       H  0.64212314  0.97393789  0.97427276     0.25780
H1382       H  0.62052425  0.71047222  0.01112879     0.31720
H1383       H  0.92773160  0.64734069  0.02413411     0.37630
H1384       H  0.54279618  0.86642778  0.98378525     0.32090
H1385       H  0.83679611  0.80859656  0.97860496     0.30970
H1386       H  0.79664543  0.86544010  0.98960140     0.32650
H1387       H  0.83094301  0.53909298  0.03124896     0.31620
H1388       H  0.57245038  0.94712234  0.07604706     0.35610
H1389       H  0.50640980  0.98150119  0.17883952     0.28350
H1390       H  0.99135336  0.52178920  0.81450113     0.32580
H1391       H  0.86767950  0.58703658  0.96548758     0.35430
H1392       H  0.88607573  0.82213007  0.95416106     0.28040
H1393       H  0.52751037  0.95678432  0.14481568     0.40910
H1394       H  0.66661325  0.61098237  0.00173576     0.30970
H1395       H  0.64426826  0.52275991  0.95691923     0.38580
H1396       H  0.83121244  0.49188763  0.04934693     0.30440
H1397       H  0.56336440  0.69159604  0.00535014     0.30500
H1398       H  0.95122275  0.53595763  0.82885822     0.30760
Zr1399     Zr  0.65940911  0.84124569  0.75476750     2.17510
O1400       O  0.69556598  0.89279535  0.82511684    -0.51590
O1401       O  0.61295243  0.76453723  0.79693349    -0.74800
O1402       O  0.60618127  0.86805951  0.79044040    -0.81580
O1403       O  0.79029335  0.87938682  0.73898917    -0.83330
O1404       O  0.55135649  0.86186944  0.73526985    -0.78950
O1405       O  0.73236263  0.85116233  0.79271035    -0.90590
O1406       O  0.58969264  0.69586624  0.74916370    -0.76550
O1407       O  0.58448026  0.78176300  0.71397257    -0.86040
O1408       O  0.68177707  0.78725657  0.71434078    -0.85730
O1409       O  0.64359150  0.89311221  0.70599906    -0.72490
O1410       O  0.72714931  0.89286019  0.70722270    -0.84620
Zr1411     Zr  0.65635332  0.83267892  0.57645442     2.26420
Zr1412     Zr  0.56874120  0.83257221  0.66378784     2.06270
Zr1413     Zr  0.74729399  0.83751740  0.66533290     2.10050
Zr1414     Zr  0.60738101  0.72840314  0.67358052     1.78760
O1415       O  0.82899434  0.89339510  0.63561739    -0.93420
O1416       O  0.51943239  0.66330636  0.66399709    -0.41230
O1417       O  0.67182123  0.77964781  0.62423872    -0.77870
O1418       O  0.59043011  0.77792850  0.62444313    -0.96550
O1419       O  0.63528471  0.88710754  0.61658961    -0.89860
O1420       O  0.73206129  0.89020350  0.61705168    -0.92700
C1421       C  0.59296009  0.71646006  0.78861111     1.01050
C1422       C  0.77714584  0.87675430  0.78044345     1.13980
C1423       C  0.56926299  0.87220281  0.77632393     1.04760
O1424       O  0.48348712  0.76758896  0.67863633    -0.94850
O1425       O  0.52393867  0.79832074  0.58979818    -0.90600
O1426       O  0.57770525  0.79878039  0.53797879    -0.83740
C1427       C  0.53531917  0.79114473  0.54941254     1.11400
O1428       O  0.73724109  0.00340800  0.72411330    -0.96830
Zr1429     Zr  0.71049805  0.94386533  0.65886948     1.88940
O1430       O  0.68492834  0.91036374  0.53474353    -0.73480
O1431       O  0.53855327  0.89005030  0.64688669    -0.52740
O1432       O  0.67089223  0.99522391  0.65720527    -0.97420
O1433       O  0.80041989  0.00294587  0.66192723    -0.54630
O1434       O  0.72362692  0.97825221  0.58473706    -0.73990
C1435       C  0.70893928  0.95848527  0.54453178     0.98350
O1436       O  0.62964358  0.78797299  0.50211055    -0.62810
O1437       O  0.78563879  0.78847287  0.68681500    -0.57620
O1438       O  0.71999799  0.82179456  0.54347365    -0.94300
O1439       O  0.73457857  0.78108832  0.59730288    -0.92720
O1440       O  0.64962779  0.67968362  0.67473168    -0.93080
O1441       O  0.56891260  0.66934459  0.60871587    -0.91860
C1442       C  0.72706972  0.78650071  0.55531743     1.17190
H1443       H  0.69318866  0.77014137  0.73362196     0.33140
H1444       H  0.56221444  0.75147340  0.60697344     0.43990
H1445       H  0.75896135  0.90871656  0.59702579     0.37520
H1446       H  0.63938989  0.91810809  0.72293678     0.34000
H1447       H  0.51628426  0.63326041  0.67858462     0.25780
H1448       H  0.50585429  0.87566432  0.66116495     0.31720
H1449       H  0.69783355  0.02970479  0.65047655     0.37630
H1450       H  0.62432324  0.64615588  0.68514388     0.32090
H1451       H  0.82191174  0.81337956  0.68965514     0.30970
H1452       H  0.84537853  0.92248727  0.65811926     0.32650
H1453       H  0.80472339  0.03342985  0.64730572     0.31620
H1454       H  0.58127418  0.69052783  0.58217273     0.35610
H1455       H  0.65774913  0.80600655  0.48187843     0.28350
H1456       H  0.66991384  0.87788715  0.84812029     0.32580
H1457       H  0.75123828  0.03745284  0.71186297     0.35430
H1458       H  0.77550705  0.77910378  0.71812982     0.28040
H1459       H  0.62680613  0.75467472  0.50610881     0.40910
H1460       H  0.48628543  0.75331503  0.70729615     0.30970
H1461       H  0.50168400  0.67564240  0.68328955     0.38580
H1462       H  0.81419126  0.98794988  0.64062819     0.30440
H1463       H  0.56088280  0.92173096  0.66517136     0.30500
H1464       H  0.69920894  0.92615348  0.81939087     0.30760
C1465       C  0.82869971  0.88634936  0.84839448     0.00300
C1466       C  0.81417003  0.90865659  0.81695200     0.00300
C1467       C  0.77180787  0.64647329  0.82990702     0.02030
C1468       C  0.81754711  0.69329603  0.83291336     0.02030
C1469       C  0.86392241  0.69489530  0.83412651     0.02030
C1470       C  0.86559282  0.64954614  0.83457179     0.02030
C1471       C  0.81975346  0.60182986  0.83100502     0.02030
C1472       C  0.77254341  0.60010516  0.82866086     0.02030
C1473       C  0.59270393  0.66484400  0.85430559     0.00300
C1474       C  0.56899773  0.68284476  0.82664532     0.00300
C1475       C  0.56804931  0.93282060  0.83407050     0.00300
C1476       C  0.54343849  0.88662369  0.81025050     0.00300
C1477       C  0.93393550  0.64425459  0.79518459    -0.21570
C1478       C  0.91585304  0.65298053  0.83536617    -0.09610
C1479       C  0.94787143  0.66950515  0.87458216     0.29250
C1480       C  0.99730792  0.67878117  0.87260848    -0.21570
C1481       C  0.01496105  0.66912497  0.83201670    -0.09620
C1482       C  0.98121589  0.64932419  0.79413932     0.29260
F1483       F  0.49360308  0.63385677  0.75581659    -0.20140
H1484       H  0.91180470  0.63428319  0.76397627     0.17620
H1485       H  0.02189535  0.69416771  0.90257287     0.17630
F1486       F  0.93187424  0.67817633  0.91441144    -0.20130
C1487       C  0.71353267  0.67765579  0.80358634    -0.21570
C1488       C  0.72347628  0.64706396  0.83150469    -0.09610
C1489       C  0.69118030  0.62403617  0.86635323     0.29250
C1490       C  0.64829541  0.62701907  0.87001319    -0.21570
C1491       C  0.63972738  0.66133804  0.84524541    -0.09620
C1492       C  0.67637705  0.68940875  0.81415025     0.29260
F1493       F  0.68266979  0.73336493  0.80004799    -0.20140
H1494       H  0.73841072  0.69747984  0.77697371     0.17620
H1495       H  0.62353139  0.60318880  0.89492468     0.17630
F1496       F  0.70247072  0.60139174  0.89925469    -0.20130
C1497       C  0.65718271  0.47910060  0.86314166    -0.21570
C1498       C  0.62238729  0.46971595  0.82779571    -0.09610
C1499       C  0.63895248  0.49972540  0.78997114     0.29250
C1500       C  0.68893082  0.53954685  0.78882178    -0.21570
C1501       C  0.72332058  0.55059364  0.82543748    -0.09620
C1502       C  0.70639653  0.51953625  0.86267704     0.29260
F1503       F  0.73448486  0.53278585  0.90170418    -0.20140
H1504       H  0.64544257  0.95672308  0.89270060     0.17620
H1505       H  0.70013108  0.56384316  0.76044565     0.17630
F1506       F  0.60622071  0.49254852  0.75550220    -0.20130
C1507       C  0.93980243  0.77415413  0.86781987    -0.21570
C1508       C  0.91048443  0.74463638  0.82980831    -0.09610
C1509       C  0.92292517  0.76442922  0.78702662     0.29250
C1510       C  0.96024688  0.81469739  0.78291908    -0.21570
C1511       C  0.99276037  0.84342209  0.81997804    -0.09620
C1512       C  0.98252897  0.82169668  0.86254760     0.29260
F1513       F  0.51588649  0.84366003  0.89793065    -0.20140
H1514       H  0.93102023  0.75938992  0.90117070     0.17620
H1515       H  0.96589646  0.82970881  0.74966538     0.17630
F1516       F  0.89756765  0.73546191  0.74922825    -0.20130
C1517       C  0.83070260  0.49035204  0.78455178    -0.21570
C1518       C  0.82232165  0.46143199  0.82285699    -0.09610
C1519       C  0.81437164  0.48029106  0.86418288     0.29250
C1520       C  0.81650787  0.52712735  0.86688360    -0.21570
C1521       C  0.82167216  0.55402028  0.82815303    -0.09620
C1522       C  0.82935660  0.53543349  0.78692712     0.29260
F1523       F  0.83476954  0.56043920  0.74867748    -0.20140
H1524       H  0.83654082  0.47709755  0.75212489     0.17620
H1525       H  0.81246366  0.54165060  0.89922462     0.17630
F1526       F  0.80158503  0.95245694  0.90143279    -0.20130
C1527       C  0.79745663  0.79940939  0.87602126    -0.21570
C1528       C  0.81726440  0.83335572  0.84114417    -0.09610
C1529       C  0.83446521  0.81972404  0.80279656     0.29250
C1530       C  0.83074031  0.77264416  0.79909149    -0.21570
C1531       C  0.81706401  0.74161953  0.83608165    -0.09620
C1532       C  0.79970216  0.75501166  0.87459903     0.29260
F1533       F  0.78461058  0.72498287  0.91043544    -0.20140
H1534       H  0.78333933  0.80894068  0.90567823     0.17620
H1535       H  0.83934437  0.76091143  0.76744224     0.17630
F1536       F  0.85764570  0.85304020  0.77021075    -0.20130
C1537       C  0.65678275  0.66957568  0.55292561    -0.21570
C1538       C  0.67528909  0.69864031  0.51477962    -0.09610
C1539       C  0.64630676  0.67979955  0.47375366     0.29250
C1540       C  0.60471852  0.63099724  0.46981714    -0.21570
C1541       C  0.58469647  0.60354586  0.50818695    -0.09620
C1542       C  0.61083557  0.62367964  0.55009966     0.29260
F1543       F  0.59084404  0.60050390  0.58871699    -0.20140
H1544       H  0.67677169  0.68331137  0.58538421     0.17620
H1545       H  0.58642438  0.61596979  0.43694430     0.17630
F1546       F  0.65523441  0.70979975  0.43840709    -0.20130
C1547       C  0.87740316  0.88349347  0.53004349    -0.21570
C1548       C  0.89099601  0.91506136  0.49340365    -0.09610
C1549       C  0.85996321  0.89744682  0.45371725     0.29250
C1550       C  0.81533063  0.85034058  0.45165694    -0.21570
C1551       C  0.80186576  0.81847622  0.48812085    -0.09620
C1552       C  0.83437289  0.83525335  0.52706460     0.29260
F1553       F  0.82602881  0.80406024  0.56142274    -0.20140
H1554       H  0.90156252  0.89539034  0.56032622     0.17620
H1555       H  0.79175403  0.83816169  0.42102845     0.17630
F1556       F  0.87438335  0.92411493  0.41587597    -0.20130
C1557       C  0.82741284  0.01805675  0.53475276    -0.21570
C1558       C  0.80365780  0.51357147  0.49232387    -0.09610
C1559       C  0.82671002  0.50816820  0.45355244     0.29250
C1560       C  0.87277691  0.51064944  0.45666402    -0.21570
C1561       C  0.89516562  0.51291422  0.49864856    -0.09620
C1562       C  0.87169999  0.01583243  0.53800949     0.29260
F1563       F  0.89223016  0.01778725  0.57943489    -0.20140
H1564       H  0.81270434  0.02465538  0.56528200     0.17620
H1565       H  0.89066761  0.50979157  0.42588503     0.17630
F1566       F  0.80442887  0.49972937  0.41209629    -0.20130
C1567       C  0.65558062  0.51773804  0.54092130    -0.21570
C1568       C  0.67155122  0.00248938  0.50259718    -0.09610
C1569       C  0.64102322  0.98807010  0.46255958     0.29250
C1570       C  0.59736423  0.99172816  0.46081235    -0.21570
C1571       C  0.58161440  0.00694169  0.49965019    -0.09620
C1572       C  0.61057097  0.51770522  0.54014379     0.29260
F1573       F  0.59303854  0.52303489  0.58020414    -0.20140
H1574       H  0.67685298  0.52717338  0.57262562     0.17620
H1575       H  0.57474876  0.98075644  0.42962807     0.17630
F1576       F  0.65142820  0.96727695  0.42624208    -0.20130
C1577       C  0.98068900  0.62728383  0.53805141    -0.21570
C1578       C  0.99230893  0.60588769  0.50102539    -0.09610
C1579       C  0.50476365  0.63070926  0.46042027     0.29250
C1580       C  0.51010190  0.67840685  0.45807746    -0.21570
C1581       C  0.99546112  0.69878583  0.49378024    -0.09620
C1582       C  0.98026986  0.67247986  0.53397609     0.29260
F1583       F  0.96189531  0.68840180  0.56794093    -0.20140
H1584       H  0.96985410  0.60786095  0.56930785     0.17620
H1585       H  0.52155386  0.69743899  0.42668423     0.17630
F1586       F  0.50880595  0.60738994  0.42222098    -0.20130
C1587       C  0.50690409  0.90852705  0.53568681    -0.21570
C1588       C  0.98360653  0.91394955  0.49804576    -0.09610
C1589       C  0.96333633  0.87547391  0.46360818     0.29250
C1590       C  0.96728002  0.83210802  0.46734165    -0.21570
C1591       C  0.99467825  0.82819995  0.50413303    -0.09620
C1592       C  0.51922553  0.87153761  0.53506914     0.29260
F1593       F  0.56088149  0.88384712  0.56056912    -0.20140
H1594       H  0.52207162  0.93744646  0.56294514     0.17620
H1595       H  0.95117874  0.80434975  0.43976411     0.17630
F1596       F  0.94031897  0.88001637  0.42646287    -0.20130
C1597       C  0.66895880  0.71983149  0.12465391    -0.21570
C1598       C  0.65515110  0.68911899  0.16190739    -0.09610
C1599       C  0.64235148  0.70534077  0.20195461     0.29250
C1600       C  0.64651072  0.75276565  0.20510259    -0.21570
C1601       C  0.65555322  0.78050723  0.16639102    -0.09620
C1602       C  0.66435219  0.76250376  0.12556989     0.29260
F1603       F  0.66732305  0.78551393  0.08647848    -0.20140
H1604       H  0.67958564  0.70887181  0.09354760     0.17620
H1605       H  0.63916260  0.76620151  0.23671941     0.17630
F1606       F  0.62184445  0.67397999  0.23636260    -0.20130
C1607       C  0.64400250  0.98633903  0.21218673    -0.21570
C1608       C  0.65622845  0.97062076  0.17168124    -0.09610
C1609       C  0.66509108  0.00054232  0.13406752     0.29250
C1610       C  0.66429420  0.54618316  0.13777904    -0.21570
C1611       C  0.65292129  0.56232406  0.17874577    -0.09620
C1612       C  0.64176500  0.03103583  0.21565243     0.29260
F1613       F  0.62952183  0.04425065  0.25555963    -0.20140
H1614       H  0.63720451  0.96442250  0.24180136     0.17620
H1615       H  0.67395449  0.56962980  0.10888512     0.17630
F1616       F  0.67416511  0.98559517  0.09353380    -0.20130
C1617       C  0.54578315  0.75194748  0.20720679    -0.21570
C1618       C  0.56235125  0.77704093  0.16675633    -0.09610
C1619       C  0.54054103  0.74916992  0.12568971     0.29250
C1620       C  0.50136424  0.69859311  0.12531759    -0.21570
C1621       C  0.48495123  0.67278367  0.16563181    -0.09620
C1622       C  0.50970844  0.69990722  0.20657560     0.29260
F1623       F  0.50260787  0.67534853  0.24536348    -0.20140
H1624       H  0.56409741  0.77168168  0.23914864     0.17620
H1625       H  0.98500321  0.67926905  0.09295966     0.17630
F1626       F  0.55908486  0.76982022  0.08574639    -0.20130
C1627       C  0.82690888  0.03790983  0.14127590    -0.21570
C1628       C  0.85543895  0.54947264  0.18212710    -0.09610
C1629       C  0.83277281  0.01868578  0.21868515     0.29250
C1630       C  0.78267231  0.97939663  0.21499841    -0.21570
C1631       C  0.75386735  0.96846971  0.17451570    -0.09620
C1632       C  0.77756466  0.99662072  0.13691194     0.29260
F1633       F  0.75384152  0.98325471  0.09557374    -0.20140
H1634       H  0.84208546  0.56188773  0.11307724     0.17620
H1635       H  0.76623197  0.95686391  0.24390750     0.17360
F1636       F  0.85891840  0.02738456  0.25849009    -0.20130
C1637       C  0.54117918  0.88064428  0.20557873    -0.21570
C1638       C  0.55952096  0.87164664  0.16556064    -0.09610
C1639       C  0.52735257  0.85461433  0.12640037     0.29250
C1640       C  0.47786370  0.84524633  0.12801822    -0.21570
C1641       C  0.45956844  0.85437248  0.16837252    -0.09620
C1642       C  0.49321403  0.87438011  0.20662648     0.29260
F1643       F  0.48015557  0.88841470  0.24551447    -0.20140
H1644       H  0.56362096  0.89152050  0.23676291     0.17620
H1645       H  0.45343790  0.82950755  0.09798004     0.17630
F1646       F  0.54324475  0.84554396  0.08674911    -0.20130
C1647       C  0.76319589  0.86284163  0.12354333    -0.21570
C1648       C  0.74953270  0.87117634  0.16635619    -0.09610
C1649       C  0.77521593  0.86701632  0.20443231     0.29250
C1650       C  0.81589331  0.85874564  0.19901242    -0.21570
C1651       C  0.82830129  0.84857855  0.15568305    -0.09620
C1652       C  0.79802689  0.84696595  0.11858399     0.29260
F1653       F  0.80160140  0.82934213  0.07702638    -0.20140
H1654       H  0.74403074  0.86507709  0.09359981     0.17620
H1655       H  0.83807709  0.86150544  0.22868100     0.17630
F1656       F  0.76154283  0.87163430  0.24678226    -0.20130
loop_ 
_geom_bond_atom_site_label_1 
_geom_bond_atom_site_label_2 
_geom_bond_distance 
_geom_bond_site_symmetry_2 
_ccdc_geom_bond_type 
Zr1           O2   2.441       .  S
Zr1           O3   2.469       .  S
Zr1           O4   2.398       .  S
Zr1           O7   2.365       .  S
Zr1           O9   2.369       .  S
Zr1          O10   2.371       .  S
Zr1          O11   2.410       .  S
Zr1          O12   2.405       .  S
O2           H58   0.990       .  S
O2           H66   0.989       .  S
O3           C23   1.288       .  A
O4           C25   1.270       .  A
O5          Zr15   2.455       .  S
O5           C24   1.290       .  A
O6          Zr14   2.484       .  S
O6           C25   1.293       .  A
O7           C24   1.270       .  A
O8          Zr16   2.417       .  S
O8           C23   1.278       .  A
O9          Zr14   2.416       .  S
O9          Zr16   2.384       .  S
O10         Zr15   2.402       .  S
O10         Zr16   2.377       .  S
O10          H45   0.966       .  S
O11         Zr14   2.428       .  S
O11         Zr31   2.379       .  S
O11          H48   0.962       .  S
O12         Zr15   2.379       .  S
O12         Zr31   2.401       .  S
Zr13         O38   2.443       .  S
Zr13         O32   2.427       .  S
Zr13         O40   2.408       .  S
Zr13         O28   2.381       .  S
Zr13         O19   2.395       .  S
Zr13         O20   2.401       .  S
Zr13         O21   2.378       .  S
Zr13         O22   2.373       .  S
Zr14         O33   2.436       .  S
Zr14         O26   2.435       .  S
Zr14         O27   2.493       .  S
Zr14         O20   2.405       .  S
Zr14         O21   2.412       .  S
Zr15         O17   2.436       .  S
Zr15         O39   2.436       .  S
Zr15         O41   2.441       .  S
Zr15         O19   2.384       .  S
Zr15         O22   2.409       .  S
Zr16         O42   2.433       .  S
Zr16         O43   2.421       .  S
Zr16         O18   2.436       .  S
Zr16         O19   2.391       .  S
Zr16         O20   2.356       .  S
O17          H54   0.990       .  S
O18          H49   0.990   1_545  S
O18          H63   0.990       .  S
O20          H46   0.960       .  S
O21         Zr31   2.370       .  S
O22         Zr31   2.367       .  S
O22          H47   0.966       .  S
C23          C81   1.495       .  S
C24          C79   1.460       .  S
C25          C90   1.486       .  S
O26          H62   0.990       .  S
O27          C29   1.298       .  A
O28          C29   1.273       .  A
C29          C73   1.478       .  S
O30         Zr31   2.438       .  S
O30          H59   0.990       .  S
Zr31         O34   2.437       .  S
Zr31         O35   2.444       .  S
Zr31         O36   2.417       .  S
O32          C37   1.279       .  A
O33          H50   0.990       .  S
O33          H65   0.990       .  S
O34          H51   0.990       .  S
O35          H55   0.990       .  S
O35          H64   0.989       .  S
O36          C37   1.275       .  A
C37          C76   1.477       .  S
O38          H57   0.990       .  S
O38          H61   0.989       .  S
O39          H53   0.990       .  S
O39          H60   0.990       .  S
O40          C44   1.275       .  A
O41          C44   1.286       .  A
O42          H52   0.991   1_545  S
O43          H56   0.990       .  S
C44          C77   1.470       .  S
C67          C68   1.421       .  A
C67          C72   1.410       .  A
C67         C406   1.522       .  S
C68          C69   1.452       .  A
C68         C389   1.502       .  S
C69          C70   1.445       .  A
C69         C366   1.507       .  S
C70          C71   1.421       .  A
C70         C396   1.516       .  S
C71          C72   1.415       .  A
C71         C376   1.505       .  S
C72         C359   1.468       .  S
C73         C369   1.512       .  S
C73          C74   1.364       .  D
C74         C119   1.474       .  S
C74         C356   1.476       .  S
C75         C134   1.470       .  S
C75         C409   1.526       .  S
C75          C76   1.381       .  D
C76        C1227   1.526       .  S
C77         C386   1.506       .  S
C77          C78   1.371       .  D
C78         C127   1.484       .  S
C78        C1207   1.520       .  S
C79         C339   1.490       .  S
C79          C80   1.375       .  D
C80         C349   1.524       .  S
C80        C1013   1.456       .  S
C81         C316   1.517       .  S
C81         C496   1.380   1_545  D
C82         C193   1.494       .  S
C82         C326   1.511       .  S
C82         C495   1.380       .  D
C83          C88   1.412       .  A
C83        C1326   1.430   1_445  A
C83         C743   1.521       .  S
C84          C85   1.421       .  A
C84        C1325   1.430       .  A
C84         C346   1.469       .  S
C85         C500   1.414       .  A
C85         C306   1.502       .  S
C86          C87   1.421       .  A
C86         C499   1.414   1_545  A
C86         C319   1.500       .  S
C87         C916   1.426       .  A
C87         C336   1.477       .  S
C88         C915   1.426   1_455  A
C88         C299   1.497       .  S
C89         C200   1.486       .  S
C89         C296   1.508       .  S
C89          C90   1.366       .  D
C90         C309   1.507       .  S
Zr91         O92   2.449       .  S
Zr91        O921   2.481   1_545  S
Zr91        O922   2.401       .  S
Zr91        O511   2.382   1_545  S
Zr91        O102   2.403   1_545  S
Zr91        O927   2.378       .  S
Zr91        O514   2.382   1_545  S
Zr91        O929   2.416       .  S
O92         H148   0.990       .  S
O92         H156   0.991       .  S
O93        Zr919   2.481   1_465  S
O93         C527   1.289       .  A
O94        Zr919   2.401   1_455  S
O94         C115   1.274       .  A
O95        Zr105   2.444       .  S
O95         C114   1.288       .  A
O96        Zr104   2.453   1_556  S
O96         C115   1.291       .  A
O97        Zr505   2.382       .  S
O97         C114   1.271       .  A
O98        Zr106   2.406       .  S
O98         C113   1.277       .  A
O99        Zr104   2.407   1_556  S
O99        Zr919   2.378   1_455  S
O99        Zr520   2.387   1_545  S
O100       Zr105   2.395       .  S
O100       Zr505   2.382       .  S
O100       Zr934   2.371       .  S
O100        H135   0.966       .  S
O101       Zr104   2.396   1_656  S
O101       Zr919   2.416       .  S
O101       Zr949   2.384   1_556  S
O101        H138   0.964       .  S
O102       Zr121   2.391   1_566  S
O102       Zr519   2.380       .  S
Zr103       O542   2.443   1_645  S
Zr103       O118   2.366   1_655  S
Zr103       O950   2.452       .  S
Zr103      O1372   2.386   1_545  S
Zr103       O110   2.401   1_655  S
Zr103       O111   2.373   1_655  S
Zr103      O1351   2.397   1_545  S
Zr103       O940   2.377   1_545  S
Zr104       O123   2.436       .  S
Zr104       O116   2.434   1_554  S
Zr104       O117   2.468       .  S
Zr104       O110   2.390       .  S
Zr104       O111   2.379       .  S
Zr105       O107   2.435   1_556  S
Zr105       O129   2.437       .  S
Zr105       O131   2.451   1_556  S
Zr105       O109   2.386   1_556  S
Zr105       O516   2.380       .  S
Zr105       O526   2.393   1_556  S
Zr106       O132   2.435       .  S
Zr106       O133   2.425   1_556  S
Zr106       O522   2.437       .  S
Zr106       O513   2.387       .  S
Zr106       O928   2.371   1_455  S
Zr106       O937   2.387   1_456  S
Zr106       O524   2.376   1_556  S
O107        H144   0.990   1_554  S
O108       Zr520   2.437   1_545  S
O108        H153   0.990       .  S
O108        H553   0.990   1_545  S
O109      Zr1345   2.397       .  S
O109       Zr934   2.387   1_554  S
O110       Zr520   2.376   1_544  S
O110        H136   0.964       .  S
O111       Zr949   2.375   1_455  S
O112       Zr121   2.380   1_565  S
O112       Zr931   2.377   1_565  S
O112       Zr519   2.393   1_554  S
O112        H551   0.966       .  S
C113        O507   1.289       .  A
C113        C233   1.494       .  S
C114        C223   1.478       .  S
C115        C231   1.470       .  S
O116        H152   0.990   1_556  S
O117        C119   1.294       .  A
O118        C119   1.269       .  A
O120       Zr121   2.431   1_556  S
O120        H149   0.990       .  S
Zr121       O124   2.438       .  S
Zr121       O125   2.441       .  S
Zr121       O126   2.413       .  S
Zr121       O929   2.384   1_554  S
Zr121       O939   2.375       .  S
O122       Zr931   2.452       .  S
O122        C127   1.286       .  A
O123        H140   0.990       .  S
O123        H155   0.990       .  S
O124        H141   0.990       .  S
O125        H145   0.990       .  S
O125        H154   0.989   1_545  S
O126        C127   1.279       .  A
O128       Zr517   2.443   1_455  S
O128        H147   0.990       .  S
O128        H151   0.989       .  S
O129        H143   0.990       .  S
O129        H150   0.990       .  S
O130      Zr1345   2.386       .  S
O130        C134   1.272       .  A
O131        C134   1.288       .  A
O132        H142   0.990       .  S
O133        H146   0.990       .  S
H137        O526   0.966       .  S
H139        O522   0.990       .  S
Zr157       O158   2.442       .  S
Zr157       O159   2.449       .  S
Zr157       O160   2.428       .  S
Zr157       O163   2.382       .  S
Zr157       O165   2.373       .  S
Zr157       O166   2.386       .  S
Zr157       O167   2.402       .  S
Zr157       O168   2.410       .  S
O158        H214   0.990       .  S
O158        H222   0.990       .  S
O159        C179   1.285       .  A
O160        C181   1.280       .  A
O161       Zr171   2.477       .  S
O161        C180   1.293       .  A
O162       Zr170   2.442       .  S
O162        C181   1.286       .  A
O163        C180   1.271       .  A
O164       Zr172   2.439       .  S
O164        C179   1.284       .  A
O165       Zr170   2.402       .  S
O165       Zr172   2.380       .  S
O166       Zr171   2.390       .  S
O166       Zr172   2.358       .  S
O166        H201   0.963       .  S
O167       Zr170   2.400       .  S
O167       Zr187   2.381       .  S
O167        H204   0.964       .  S
O168       Zr171   2.397       .  S
O168       Zr187   2.388       .  S
Zr169       O194   2.442       .  S
Zr169       O188   2.465       .  S
Zr169       O196   2.384       .  S
Zr169       O184   2.363       .  S
Zr169       O175   2.407       .  S
Zr169       O176   2.413       .  S
Zr169       O177   2.367       .  S
Zr169       O178   2.371       .  S
Zr170       O189   2.437       .  S
Zr170       O182   2.435   1_455  S
Zr170       O183   2.464       .  S
Zr170       O176   2.373       .  S
Zr170       O177   2.406       .  S
Zr171       O173   2.436       .  S
Zr171       O195   2.434       .  S
Zr171       O197   2.494       .  S
Zr171       O175   2.375       .  S
Zr171       O178   2.404       .  S
Zr172       O198   2.435       .  S
Zr172       O199   2.420       .  S
Zr172       O174   2.435       .  S
Zr172       O175   2.386       .  S
Zr172       O176   2.372       .  S
O173        H210   0.990       .  S
O174        H205   0.990       .  S
O174        H219   0.989       .  S
O176        H202   0.962       .  S
O177       Zr187   2.380       .  S
O178       Zr187   2.382       .  S
O178        H203   0.966       .  S
C179        C232   1.489       .  S
C180        C224   1.477       .  S
C181        C234   1.484       .  S
O182        H218   0.990       .  S
O183        C185   1.295       .  A
O184        C185   1.270       .  A
C185        C908   1.456       .  S
O186       Zr187   2.427       .  S
O186        H215   0.990       .  S
Zr187       O190   2.438       .  S
Zr187       O191   2.437       .  S
Zr187       O192   2.419       .  S
O188        C193   1.287       .  A
O189        H206   0.990       .  S
O189        H221   0.990       .  S
O190        H207   0.990       .  S
O191        H211   0.990       .  S
O191        H220   0.989       .  S
O192        C193   1.280       .  A
O194        H213   0.990       .  S
O194        H217   0.989       .  S
O195        H209   0.990       .  S
O195        H216   0.989       .  S
O196        C200   1.266       .  A
O197        C200   1.292       .  A
O198        H208   0.990       .  S
O199        H212   0.990       .  S
C223        C286   1.480       .  S
C223        C224   1.370       .  D
C224        C690   1.505       .  S
C225        C226   1.415       .  A
C225        C230   1.429       .  A
C225        C246   1.512       .  S
C226        C227   1.416       .  A
C226        C289   1.486       .  S
C227        C228   1.415       .  A
C227        C266   1.488       .  S
C228        C229   1.431       .  A
C228        C236   1.510       .  S
C229        C230   1.441       .  A
C229        C279   1.493       .  S
C230        C259   1.510       .  S
C231        C249   1.545       .  S
C231        C232   1.392       .  D
C232       C1067   1.523       .  S
C233        C670   1.501       .  S
C233        C234   1.376       .  D
C234       C1097   1.498   1_455  S
C235        C236   1.398       .  A
C235        C240   1.397       .  A
C235        H242   1.078       .  S
C236        C237   1.413       .  A
C237        C238   1.416       .  A
C237        F244   1.356       .  S
C238        C239   1.412       .  A
C238        H243   1.082       .  S
C239       C1060   1.523       .  S
C239        C240   1.409       .  A
C240       F1069   1.349       .  S
F241       C1068   1.349       .  S
C245        C246   1.412       .  A
C245        C250   1.409       .  A
C245        H252   1.081       .  S
C246        C247   1.393       .  A
C247        C248   1.386       .  A
C247        F254   1.354       .  S
C248        C249   1.429       .  A
C248        H253   1.076       .  S
C249        C250   1.409       .  A
C250        F251   1.341       .  S
C255        C256   1.402       .  A
C255        C260   1.398   1_565  A
C255        H676   1.081       .  S
C256        C647   1.501       .  S
C256        C257   1.407       .  A
C257        C258   1.409   1_565  A
C257        F264   1.357       .  S
C258        C259   1.412       .  A
C258        H263   1.083       .  S
C259        C260   1.409       .  A
C260        F261   1.353       .  S
H262        C669   1.081       .  S
C265        C266   1.402       .  A
C265        C270   1.404       .  A
C265        H272   1.082       .  S
C266        C267   1.399       .  A
C267        C268   1.392       .  A
C267        F274   1.359       .  S
C268        C269   1.409       .  A
C268        H273   1.081       .  S
C269       C1062   1.498       .  S
C269        C270   1.411       .  A
C270       F1099   1.351       .  S
F271       C1098   1.351   1_455  S
C275        C276   1.409       .  A
C275        C280   1.400   1_565  A
C275        H282   1.082       .  S
C276        C638   1.505       .  S
C276        C277   1.412       .  A
C277        C278   1.400   1_565  A
C277        F698   1.356       .  S
C278        C279   1.399       .  A
C278        H283   1.077       .  S
C279        C280   1.402       .  A
C280        F281   1.354       .  S
F284        C691   1.356       .  S
C285        C286   1.406       .  A
C285        C290   1.394       .  A
C285        H292   1.083       .  S
C286        C287   1.400       .  A
C287        C288   1.385       .  A
C287        F294   1.357       .  S
C288        C289   1.401       .  A
C288        H293   1.077       .  S
C289        C290   1.404       .  A
C290        F291   1.357       .  S
C295        C296   1.405       .  A
C295        C300   1.404       .  A
C295        H302   1.081       .  S
C296        C297   1.414       .  A
C297        C298   1.393       .  A
C297        F304   1.355       .  S
C298        C299   1.396       .  A
C298        H303   1.079       .  S
C299        C300   1.406       .  A
C300        F301   1.354       .  S
C305        C306   1.402       .  A
C305        C310   1.400       .  A
C305        H312   1.083       .  S
C306        C307   1.409       .  A
C307        C308   1.403       .  A
C307        F314   1.355       .  S
C308        C309   1.404       .  A
C308        H313   1.082       .  S
C309        C310   1.414       .  A
C310        F311   1.357       .  S
C315        C320   1.413       .  A
C315        C730   1.411       .  A
C315        H322   1.078       .  S
C316        C317   1.412       .  A
C316        C729   1.411       .  A
C317        C318   1.395       .  A
C317        F324   1.347   1_545  S
C318        C319   1.395       .  A
C318        H323   1.082       .  S
C319        C734   1.409       .  A
C320        C733   1.409       .  A
C320        F321   1.357       .  S
C325        C330   1.397       .  A
C325        C740   1.402       .  A
C325        H332   1.079       .  S
C326        C327   1.412       .  A
C326        C739   1.402       .  A
C327        C328   1.416       .  A
C327        F334   1.355       .  S
C328        C329   1.411       .  A
C328        H333   1.083       .  S
C329        C744   1.409       .  A
C329        C497   1.521       .  S
C330        C743   1.409       .  A
C330        F331   1.352       .  S
C335        C336   1.401       .  A
C335        C340   1.399       .  A
C335        H342   1.082       .  S
C336       C1165   1.399       .  A
C337        C338   1.387       .  A
C337       C1164   1.399   1_455  A
C337        F344   1.357       .  S
C338       C1167   1.403   1_455  A
C338        H343   1.082       .  S
C339        C340   1.411       .  A
C339       C1166   1.403       .  A
C340        F341   1.357       .  S
C345        C350   1.366       .  A
C345       C1174   1.377   1_455  A
C345        H352   1.080       .  S
C346        C347   1.400       .  A
C346       C1173   1.377       .  A
C347        C348   1.401       .  A
C347        F354   1.350       .  S
C348        C349   1.415       .  A
C348        H353   1.069       .  S
C349       C1178   1.428       .  A
C350       C1177   1.428   1_455  A
C350        F351   1.355       .  S
C355        C356   1.402       .  A
C355        C360   1.383       .  A
C355        H362   1.082       .  S
C356        C357   1.408       .  A
C357        C358   1.389       .  A
C357        F364   1.356       .  S
C358        C359   1.397       .  A
C358        H363   1.082       .  S
C359        C360   1.398       .  A
C360        F361   1.356       .  S
C365        C366   1.404       .  A
C365        C370   1.404       .  A
C365        H372   1.081       .  S
C366        C367   1.408       .  A
C367        C782   1.409       .  A
C367        F374   1.353       .  S
C368        C369   1.410       .  A
C368        C781   1.409       .  A
C368        H373   1.083       .  S
C369        C784   1.408       .  A
C370        C783   1.408       .  A
C370        F371   1.357       .  S
C375        C376   1.406       .  A
C375        C380   1.407       .  A
C375        H382   1.083       .  S
C376        C377   1.404       .  A
C377        C378   1.402       .  A
C377        F384   1.356       .  S
C378        C379   1.411   1_455  A
C378       H1211   1.078   1_455  S
C379        C906   1.520       .  S
C379        C380   1.412   1_655  A
C380        F381   1.355       .  S
H383       C1206   1.078       .  S
C385        C390   1.407       .  A
C385        C800   1.409       .  A
C385        H806   1.080       .  S
C386        C799   1.409       .  A
C386        C801   1.409       .  A
C387        C388   1.403       .  A
C387        C800   1.409       .  A
C387        F394   1.357       .  S
C388        C389   1.406       .  A
C388        H393   1.082       .  S
C389        C390   1.407       .  A
C390        F391   1.354       .  S
H392        C799   1.080       .  S
C395        C396   1.401       .  A
C395        C400   1.404   1_455  A
C395        H402   1.080       .  S
C396        C397   1.414       .  A
C397        C398   1.416   1_455  A
C397        F404   1.354       .  S
C398        C399   1.410       .  A
C398        H403   1.082       .  S
C399        C904   1.526       .  S
C399        C400   1.416       .  A
C400        F401   1.353       .  S
C405        C406   1.399       .  A
C405        C410   1.400       .  A
C405        H412   1.082       .  S
C406        C407   1.415       .  A
C407        C408   1.419       .  A
C407        F414   1.356       .  S
C408        C409   1.414       .  A
C408        H413   1.080       .  S
C409        C410   1.415       .  A
C410        F411   1.354       .  S
Zr415       O416   2.441       .  S
Zr415       O417   2.469       .  S
Zr415       O418   2.398       .  S
Zr415       O421   2.365       .  S
Zr415       O423   2.369       .  S
Zr415       O424   2.371       .  S
Zr415       O425   2.410       .  S
Zr415       O426   2.405       .  S
O416        H472   0.990       .  S
O416        H480   0.989       .  S
O417        C437   1.288       .  A
O418        C439   1.270       .  A
O419       Zr429   2.455       .  S
O419        C438   1.290       .  A
O420       Zr428   2.484       .  S
O420        C439   1.293       .  A
O421        C438   1.270       .  A
O422       Zr430   2.417       .  S
O422        C437   1.278       .  A
O423       Zr428   2.416       .  S
O423       Zr430   2.384       .  S
O424       Zr429   2.402       .  S
O424       Zr430   2.377       .  S
O424        H459   0.966       .  S
O425       Zr428   2.428       .  S
O425       Zr445   2.379       .  S
O425        H462   0.962       .  S
O426       Zr429   2.379       .  S
O426       Zr445   2.401       .  S
Zr427       O452   2.443       .  S
Zr427       O446   2.427       .  S
Zr427       O454   2.408       .  S
Zr427       O442   2.381       .  S
Zr427       O433   2.395       .  S
Zr427       O434   2.401       .  S
Zr427       O435   2.378       .  S
Zr427       O436   2.373       .  S
Zr428       O447   2.436       .  S
Zr428       O440   2.435       .  S
Zr428       O441   2.493       .  S
Zr428       O434   2.405       .  S
Zr428       O435   2.412       .  S
Zr429       O431   2.436       .  S
Zr429       O453   2.436       .  S
Zr429       O455   2.441       .  S
Zr429       O433   2.384       .  S
Zr429       O436   2.409       .  S
Zr430       O456   2.433       .  S
Zr430       O457   2.421       .  S
Zr430       O432   2.436       .  S
Zr430       O433   2.391       .  S
Zr430       O434   2.356       .  S
O431        H468   0.990       .  S
O432        H463   0.990       .  S
O432        H477   0.990       .  S
O434        H460   0.960       .  S
O435       Zr445   2.370       .  S
O436       Zr445   2.367       .  S
O436        H461   0.966       .  S
C437        C495   1.495       .  S
C438        C493   1.460       .  S
C439        C504   1.486       .  S
O440        H476   0.990       .  S
O441        C443   1.298       .  A
O442        C443   1.273       .  A
C443        C487   1.478       .  S
O444       Zr445   2.438       .  S
O444        H473   0.990       .  S
Zr445       O448   2.437       .  S
Zr445       O449   2.444       .  S
Zr445       O450   2.417       .  S
O446        C451   1.279       .  A
O447        H464   0.990       .  S
O447        H479   0.990       .  S
O448        H465   0.990       .  S
O449        H469   0.990       .  S
O449        H478   0.989       .  S
O450        C451   1.275       .  A
C451        C490   1.477       .  S
O452        H471   0.990       .  S
O452        H475   0.989       .  S
O453        H467   0.990       .  S
O453        H474   0.990       .  S
O454        C458   1.275       .  A
O455        C458   1.286       .  A
O456        H466   0.991       .  S
O457        H470   0.990       .  S
C458        C491   1.470       .  S
C481        C482   1.421       .  A
C481        C486   1.410       .  A
C481        C820   1.522       .  S
C482        C483   1.452       .  A
C482        C803   1.502       .  S
C483        C484   1.445       .  A
C483        C780   1.507       .  S
C484        C485   1.421       .  A
C484        C810   1.516       .  S
C485        C486   1.415       .  A
C485        C790   1.505       .  S
C486        C773   1.468       .  S
C487        C783   1.512       .  S
C487        C488   1.364       .  D
C488        C533   1.474       .  S
C488        C770   1.476       .  S
C489        C548   1.470       .  S
C489        C823   1.526       .  S
C489        C490   1.381       .  D
C490       C1641   1.526       .  S
C491        C800   1.506       .  S
C491        C492   1.371       .  D
C492        C541   1.484       .  S
C492       C1621   1.520       .  S
C493        C753   1.490       .  S
C493        C494   1.375       .  D
C494       C1427   1.456       .  S
C494        C763   1.524       .  S
C495        C730   1.517       .  S
C496        C607   1.494       .  S
C496        C740   1.511   1_565  S
C497        C912   1.430   1_455  A
C497        C502   1.412       .  A
C498        C911   1.430   1_565  A
C498        C499   1.421       .  A
C498        C760   1.469       .  S
C499        C720   1.502       .  S
C500        C501   1.421       .  A
C500        C733   1.500       .  S
C501       C1330   1.426       .  A
C501        C750   1.477       .  S
C502       C1329   1.426   1_455  A
C502        C713   1.497       .  S
C503        C614   1.486       .  S
C503        C710   1.508       .  S
C503        C504   1.366       .  D
C504        C723   1.507       .  S
Zr505       O506   2.449       .  S
Zr505      O1335   2.481       .  S
Zr505      O1336   2.401       .  S
Zr505      O1341   2.378       .  S
Zr505      O1343   2.416       .  S
Zr505       O516   2.403       .  S
O506        H562   0.990       .  S
O506        H570   0.991       .  S
O507      Zr1333   2.481   1_455  S
O508      Zr1333   2.401   1_455  S
O508        C529   1.274       .  A
O509       Zr519   2.444       .  S
O509        C528   1.288       .  A
O510       Zr518   2.453   1_556  S
O510        C529   1.291       .  A
O511        C528   1.271       .  A
O512       Zr520   2.406       .  S
O512        C527   1.277       .  A
O513      Zr1333   2.378   1_455  S
O513       Zr518   2.407   1_556  S
O514       Zr519   2.395       .  S
O514      Zr1348   2.371       .  S
O514        H549   0.966       .  S
O515      Zr1333   2.416       .  S
O515       Zr518   2.396   1_656  S
O515      Zr1363   2.384   1_556  S
O515        H552   0.964       .  S
O516       Zr535   2.391   1_556  S
Zr517      O1364   2.452       .  S
Zr517       O958   2.386       .  S
Zr517       O532   2.366   1_655  S
Zr517       O937   2.397       .  S
Zr517       O524   2.401   1_655  S
Zr517       O525   2.373   1_655  S
Zr517      O1354   2.377       .  S
Zr518       O537   2.436       .  S
Zr518       O530   2.434   1_554  S
Zr518       O531   2.468       .  S
Zr518       O524   2.390       .  S
Zr518       O525   2.379       .  S
Zr519       O521   2.435   1_556  S
Zr519       O543   2.437       .  S
Zr519       O545   2.451   1_556  S
Zr519       O523   2.386   1_556  S
Zr520       O546   2.435       .  S
Zr520       O547   2.425   1_556  S
Zr520      O1342   2.371   1_455  S
Zr520      O1351   2.387   1_456  S
O521        H558   0.990   1_554  S
O522        H567   0.990       .  S
O523       Zr931   2.397   1_565  S
O523      Zr1348   2.387   1_554  S
O524        H550   0.964       .  S
O525      Zr1363   2.375   1_455  S
O526      Zr1345   2.377       .  S
O526       Zr535   2.380       .  S
C527        C647   1.494       .  S
C528        C637   1.478       .  S
C529        C645   1.470       .  S
O530        H566   0.990   1_556  S
O531        C533   1.294       .  A
O532        C533   1.269       .  A
O534       Zr535   2.431   1_556  S
O534        H563   0.990       .  S
Zr535       O538   2.438       .  S
Zr535       O539   2.441       .  S
Zr535       O540   2.413       .  S
Zr535      O1343   2.384   1_554  S
Zr535      O1353   2.375       .  S
O536      Zr1345   2.452       .  S
O536        C541   1.286       .  A
O537        H554   0.990       .  S
O537        H569   0.990       .  S
O538        H555   0.990       .  S
O539        H559   0.990       .  S
O539        H568   0.989       .  S
O540        C541   1.279       .  A
O542        H561   0.990       .  S
O542        H565   0.989       .  S
O543        H557   0.990       .  S
O543        H564   0.990       .  S
O544       Zr931   2.386   1_565  S
O544        C548   1.272       .  A
O545        C548   1.288       .  A
O546        H556   0.990       .  S
O547        H560   0.990       .  S
Zr571       O572   2.442       .  S
Zr571       O573   2.449       .  S
Zr571       O574   2.428       .  S
Zr571       O577   2.382       .  S
Zr571       O579   2.373       .  S
Zr571       O580   2.386       .  S
Zr571       O581   2.402       .  S
Zr571       O582   2.410       .  S
O572        H628   0.990       .  S
O572        H636   0.990       .  S
O573        C593   1.285       .  A
O574        C595   1.280       .  A
O575       Zr585   2.477       .  S
O575        C594   1.293       .  A
O576       Zr584   2.442       .  S
O576        C595   1.286       .  A
O577        C594   1.271       .  A
O578       Zr586   2.439       .  S
O578        C593   1.284       .  A
O579       Zr584   2.402       .  S
O579       Zr586   2.380       .  S
O580       Zr585   2.390       .  S
O580       Zr586   2.358       .  S
O580        H615   0.963       .  S
O581       Zr584   2.400       .  S
O581       Zr601   2.381       .  S
O581        H618   0.964       .  S
O582       Zr585   2.397       .  S
O582       Zr601   2.388       .  S
Zr583       O608   2.442       .  S
Zr583       O602   2.465       .  S
Zr583       O610   2.384       .  S
Zr583       O598   2.363       .  S
Zr583       O589   2.407       .  S
Zr583       O590   2.413       .  S
Zr583       O591   2.367       .  S
Zr583       O592   2.371       .  S
Zr584       O603   2.437       .  S
Zr584       O596   2.435   1_455  S
Zr584       O597   2.464       .  S
Zr584       O590   2.373       .  S
Zr584       O591   2.406       .  S
Zr585       O587   2.436       .  S
Zr585       O609   2.434       .  S
Zr585       O611   2.494       .  S
Zr585       O589   2.375       .  S
Zr585       O592   2.404       .  S
Zr586       O612   2.435       .  S
Zr586       O613   2.420       .  S
Zr586       O588   2.435       .  S
Zr586       O589   2.386       .  S
Zr586       O590   2.372       .  S
O587        H624   0.990       .  S
O588        H619   0.990       .  S
O588        H633   0.989       .  S
O590        H616   0.962       .  S
O591       Zr601   2.380       .  S
O592       Zr601   2.382       .  S
O592        H617   0.966       .  S
C593        C646   1.489       .  S
C594        C638   1.478       .  S
C595        C648   1.484       .  S
O596        H632   0.990       .  S
O597        C599   1.295       .  A
O598        C599   1.270       .  A
C599       C1322   1.456       .  S
O600       Zr601   2.427   1_545  S
O600        H629   0.990       .  S
Zr601       O604   2.438       .  S
Zr601       O605   2.437   1_565  S
Zr601       O606   2.419       .  S
O602        C607   1.287       .  A
O603        H620   0.990       .  S
O603        H635   0.990       .  S
O604        H621   0.990   1_565  S
O605        H625   0.990       .  S
O605        H634   0.989   1_545  S
O606        C607   1.280       .  A
O608        H627   0.990       .  S
O608        H631   0.989       .  S
O609        H623   0.990       .  S
O609        H630   0.989       .  S
O610        C614   1.266       .  A
O611        C614   1.292       .  A
O612        H622   0.990       .  S
O613        H626   0.990       .  S
C637        C700   1.480       .  S
C637        C638   1.370       .  D
C639        C640   1.415       .  A
C639        C644   1.429       .  A
C639        C660   1.512       .  S
C640        C641   1.416       .  A
C640        C703   1.486       .  S
C641        C642   1.415       .  A
C641        C680   1.488       .  S
C642        C643   1.431       .  A
C642        C650   1.510       .  S
C643        C644   1.441       .  A
C643        C693   1.493       .  S
C644        C673   1.510       .  S
C645        C663   1.545       .  S
C645        C646   1.392       .  D
C646       C1481   1.523       .  S
C647        C648   1.376       .  D
C648       C1511   1.498   1_455  S
C649        C650   1.398       .  A
C649        C654   1.397       .  A
C649        H656   1.078       .  S
C650        C651   1.413       .  A
C651        C652   1.416       .  A
C651        F658   1.356       .  S
C652        C653   1.412       .  A
C652        H657   1.082       .  S
C653       C1474   1.523       .  S
C653        C654   1.409       .  A
C654       F1483   1.349       .  S
F655       C1482   1.349       .  S
C659        C660   1.412       .  A
C659        C664   1.409       .  A
C659        H666   1.081       .  S
C660        C661   1.393       .  A
C661        C662   1.386       .  A
C661        F668   1.354       .  S
C662        C663   1.429       .  A
C662        H667   1.076       .  S
C663        C664   1.409       .  A
C664        F665   1.341       .  S
C669        C670   1.402       .  A
C669        C674   1.398       .  A
C670        C671   1.407       .  A
C671        C672   1.409       .  A
C671        F678   1.357       .  S
C672        C673   1.412       .  A
C672        H677   1.083       .  S
C673        C674   1.409       .  A
C674        F675   1.353       .  S
C679        C680   1.402       .  A
C679        C684   1.404       .  A
C679        H686   1.082       .  S
C680        C681   1.399       .  A
C681        C682   1.392       .  A
C681        F688   1.359       .  S
C682        C683   1.409       .  A
C682        H687   1.081       .  S
C683       C1476   1.498       .  S
C683        C684   1.411       .  A
C684       F1513   1.351       .  S
F685       C1512   1.351   1_455  S
C689        C690   1.409       .  A
C689        C694   1.400       .  A
C689        H696   1.082       .  S
C690        C691   1.412       .  A
C691        C692   1.400       .  A
C692        C693   1.399       .  A
C692        H697   1.077       .  S
C693        C694   1.402       .  A
C694        F695   1.354       .  S
C699        C700   1.406       .  A
C699        C704   1.394       .  A
C699        H706   1.083       .  S
C700        C701   1.400       .  A
C701        C702   1.385       .  A
C701        F708   1.357       .  S
C702        C703   1.401       .  A
C702        H707   1.077       .  S
C703        C704   1.404       .  A
C704        F705   1.357       .  S
C709        C710   1.405       .  A
C709        C714   1.404       .  A
C709        H716   1.081       .  S
C710        C711   1.414       .  A
C711        C712   1.393       .  A
C711        F718   1.355       .  S
C712        C713   1.396       .  A
C712        H717   1.079       .  S
C713        C714   1.406       .  A
C714        F715   1.354       .  S
C719        C720   1.402       .  A
C719        C724   1.400       .  A
C719        H726   1.083       .  S
C720        C721   1.409       .  A
C721        C722   1.403       .  A
C721        F728   1.355       .  S
C722        C723   1.404       .  A
C722        H727   1.082       .  S
C723        C724   1.414       .  A
C724        F725   1.357       .  S
C729        C734   1.413       .  A
C729        H736   1.078       .  S
C730        C731   1.412       .  A
C731        C732   1.395       .  A
C731        F738   1.347       .  S
C732        C733   1.395       .  A
C732        H737   1.082       .  S
C734        F735   1.357       .  S
C739        C744   1.397       .  A
C739        H746   1.079       .  S
C740        C741   1.412   1_545  A
C741        C742   1.416       .  A
C741        F748   1.355       .  S
C742        C743   1.411   1_565  A
C742        H747   1.083       .  S
C744        F745   1.352       .  S
C749        C750   1.401       .  A
C749        C754   1.399       .  A
C749        H756   1.082       .  S
C750       C1579   1.399       .  A
C751       C1578   1.399   1_455  A
C751        C752   1.387       .  A
C751        F758   1.357       .  S
C752       C1581   1.403   1_455  A
C752        H757   1.082       .  S
C753       C1580   1.403       .  A
C753        C754   1.411       .  A
C754        F755   1.357       .  S
C759       C1588   1.377   1_455  A
C759        C764   1.366       .  A
C759        H766   1.080       .  S
C760       C1587   1.377       .  A
C760        C761   1.400       .  A
C761        C762   1.401       .  A
C761        F768   1.350       .  S
C762        C763   1.415       .  A
C762        H767   1.069       .  S
C763       C1592   1.428       .  A
C764       C1591   1.428   1_455  A
C764        F765   1.355       .  S
C769        C770   1.402       .  A
C769        C774   1.383       .  A
C769        H776   1.082       .  S
C770        C771   1.408       .  A
C771        C772   1.389       .  A
C771        F778   1.356       .  S
C772        C773   1.397       .  A
C772        H777   1.082       .  S
C773        C774   1.398       .  A
C774        F775   1.356       .  S
C779        C780   1.404       .  A
C779        C784   1.404   1_565  A
C779        H786   1.081       .  S
C780        C781   1.408   1_565  A
C781        F788   1.353   1_545  S
C782        C783   1.410       .  A
C782        H787   1.083       .  S
C784        F785   1.357       .  S
C789        C790   1.406       .  A
C789        C794   1.407       .  A
C789        H796   1.083       .  S
C790        C791   1.404       .  A
C791        C792   1.402       .  A
C791        F798   1.356       .  S
C792        C793   1.411   1_455  A
C792       H1625   1.078   1_455  S
C793       C1320   1.520       .  S
C793        C794   1.412   1_655  A
C794        F795   1.355       .  S
H797       C1620   1.078       .  S
C799        C804   1.407   1_545  A
C801        C802   1.403   1_545  A
C801        F808   1.357       .  S
C802        C803   1.406       .  A
C802        H807   1.082       .  S
C803        C804   1.407       .  A
C804        F805   1.354       .  S
C809        C810   1.401       .  A
C809        C814   1.404   1_455  A
C809        H816   1.080       .  S
C810        C811   1.414       .  A
C811        C812   1.416   1_455  A
C811        F818   1.354       .  S
C812        C813   1.410       .  A
C812        H817   1.082       .  S
C813       C1318   1.526       .  S
C813        C814   1.416       .  A
C814        F815   1.353       .  S
C819        C820   1.399       .  A
C819        C824   1.400       .  A
C819        H826   1.082       .  S
C820        C821   1.415       .  A
C821        C822   1.419       .  A
C821        F828   1.356       .  S
C822        C823   1.414       .  A
C822        H827   1.080       .  S
C823        C824   1.415       .  A
C824        F825   1.354       .  S
Zr829       O830   2.441       .  S
Zr829       O831   2.469       .  S
Zr829       O832   2.398       .  S
Zr829       O835   2.365       .  S
Zr829       O837   2.369       .  S
Zr829       O838   2.371       .  S
Zr829       O839   2.410       .  S
Zr829       O840   2.405       .  S
O830        H886   0.990       .  S
O830        H894   0.989       .  S
O831        C851   1.288       .  A
O832        C853   1.270       .  A
O833       Zr843   2.455       .  S
O833        C852   1.290       .  A
O834       Zr842   2.484       .  S
O834        C853   1.293       .  A
O835        C852   1.270       .  A
O836       Zr844   2.417       .  S
O836        C851   1.278       .  A
O837       Zr842   2.416       .  S
O837       Zr844   2.384       .  S
O838       Zr843   2.402       .  S
O838       Zr844   2.377       .  S
O838        H873   0.966       .  S
O839       Zr842   2.428       .  S
O839       Zr859   2.379       .  S
O839        H876   0.962       .  S
O840       Zr843   2.379       .  S
O840       Zr859   2.401       .  S
Zr841       O866   2.443       .  S
Zr841       O860   2.427       .  S
Zr841       O868   2.408       .  S
Zr841       O856   2.381       .  S
Zr841       O847   2.395       .  S
Zr841       O848   2.401       .  S
Zr841       O849   2.378       .  S
Zr841       O850   2.373       .  S
Zr842       O861   2.436       .  S
Zr842       O854   2.435       .  S
Zr842       O855   2.493       .  S
Zr842       O848   2.405       .  S
Zr842       O849   2.412       .  S
Zr843       O845   2.436       .  S
Zr843       O867   2.436       .  S
Zr843       O869   2.441       .  S
Zr843       O847   2.384       .  S
Zr843       O850   2.409       .  S
Zr844       O870   2.433       .  S
Zr844       O871   2.421       .  S
Zr844       O846   2.436       .  S
Zr844       O847   2.391       .  S
Zr844       O848   2.356       .  S
O845        H882   0.990   1_655  S
O846        H877   0.990   1_545  S
O846        H891   0.990       .  S
O848        H874   0.960       .  S
O849       Zr859   2.370       .  S
O850       Zr859   2.367       .  S
O850        H875   0.966       .  S
C851        C909   1.495       .  S
C852        C907   1.460       .  S
C853        C918   1.486       .  S
O854        H890   0.990       .  S
O855        C857   1.298       .  A
O856        C857   1.273       .  A
C857        C901   1.478       .  S
O858       Zr859   2.438       .  S
O858        H887   0.990       .  S
Zr859       O862   2.437       .  S
Zr859       O863   2.444       .  S
Zr859       O864   2.417       .  S
O860        C865   1.279       .  A
O861        H878   0.990       .  S
O861        H893   0.990       .  S
O862        H879   0.990       .  S
O863        H883   0.990       .  S
O863        H892   0.989       .  S
O864        C865   1.275       .  A
C865        C904   1.477       .  S
O866        H885   0.990       .  S
O866        H889   0.989       .  S
O867        H881   0.990       .  S
O867        H888   0.990       .  S
O868        C872   1.275       .  A
O869        C872   1.286       .  A
O870        H880   0.991   1_545  S
O871        H884   0.990       .  S
C872        C905   1.470       .  S
C895        C896   1.421       .  A
C895        C900   1.410       .  A
C895       C1234   1.522       .  S
C896        C897   1.452       .  A
C896       C1217   1.502       .  S
C897        C898   1.445       .  A
C897       C1194   1.507       .  S
C898        C899   1.421       .  A
C898       C1224   1.516       .  S
C899        C900   1.415       .  A
C899       C1204   1.505       .  S
C900       C1187   1.468       .  S
C901       C1197   1.512       .  S
C901        C902   1.364       .  D
C902        C947   1.474       .  S
C902       C1184   1.476       .  S
C903        C962   1.470       .  S
C903       C1237   1.526       .  S
C903        C904   1.381       .  D
C905       C1214   1.506       .  S
C905        C906   1.371       .  D
C906        C955   1.484       .  S
C907       C1167   1.490       .  S
C907        C908   1.375   1_655  D
C908       C1177   1.524   1_455  S
C909       C1144   1.517       .  S
C909       C1324   1.380   1_545  D
C910       C1021   1.494       .  S
C910       C1154   1.511       .  S
C910       C1323   1.380       .  D
C911        C916   1.412       .  A
C911       C1571   1.521       .  S
C912        C913   1.421       .  A
C912       C1174   1.469       .  S
C913       C1328   1.414       .  A
C913       C1134   1.502       .  S
C914       C1327   1.414   1_545  A
C914        C915   1.421       .  A
C914       C1147   1.500       .  S
C915       C1164   1.477       .  S
C916       C1127   1.497       .  S
C917       C1028   1.486       .  S
C917       C1124   1.508       .  S
C917        C918   1.366       .  D
C918       C1137   1.507       .  S
Zr919       O920   2.449       .  S
Zr919      O1339   2.382   1_545  S
Zr919      O1342   2.382   1_545  S
Zr919       O930   2.403   1_545  S
O920        H976   0.990       .  S
O920        H984   0.991       .  S
O921       C1355   1.289       .  A
O922        C943   1.274       .  A
O923       Zr933   2.444       .  S
O923        C942   1.288       .  A
O924       Zr932   2.453   1_556  S
O924        C943   1.291       .  A
O925      Zr1333   2.382       .  S
O925        C942   1.271       .  A
O926       Zr934   2.406       .  S
O926        C941   1.277       .  A
O927       Zr932   2.407   1_556  S
O927      Zr1348   2.387   1_545  S
O928      Zr1333   2.382       .  S
O928       Zr933   2.395       .  S
O928        H963   0.966       .  S
O929       Zr932   2.396   1_556  S
O929        H966   0.964       .  S
O930      Zr1347   2.380       .  S
O930       Zr949   2.391   1_566  S
Zr931      O1370   2.443   1_545  S
Zr931       O946   2.366       .  S
Zr931       O938   2.401       .  S
Zr931       O939   2.373       .  S
Zr932       O951   2.436       .  S
Zr932       O944   2.434   1_554  S
Zr932       O945   2.468       .  S
Zr932       O938   2.390       .  S
Zr932       O939   2.379       .  S
Zr933       O935   2.435   1_556  S
Zr933       O957   2.437       .  S
Zr933       O959   2.451   1_556  S
Zr933      O1344   2.380       .  S
Zr933       O937   2.386   1_556  S
Zr933      O1354   2.393   1_556  S
Zr934       O960   2.435       .  S
Zr934       O961   2.425   1_556  S
Zr934      O1350   2.437       .  S
Zr934      O1341   2.387       .  S
Zr934      O1352   2.376   1_556  S
O935        H972   0.990   1_554  S
O936      Zr1348   2.437   1_545  S
O936       H1381   0.990   1_545  S
O936        H981   0.990       .  S
O938      Zr1348   2.376   1_544  S
O938        H964   0.964       .  S
O940      Zr1347   2.393   1_554  S
O940       Zr949   2.380   1_565  S
O940       H1379   0.966       .  S
C941       O1335   1.289       .  A
C941       C1061   1.494       .  S
C942       C1051   1.478       .  S
C943       C1059   1.470       .  S
O944        H980   0.990   1_556  S
O945        C947   1.294       .  A
O946        C947   1.269       .  A
O948       Zr949   2.431   1_556  S
O948        H977   0.990       .  S
Zr949       O952   2.438       .  S
Zr949       O953   2.441       .  S
Zr949       O954   2.413       .  S
O950        C955   1.286       .  A
O951        H968   0.990       .  S
O951        H983   0.990       .  S
O952        H969   0.990       .  S
O953        H973   0.990       .  S
O953        H982   0.989   1_545  S
O954        C955   1.279       .  A
O956      Zr1345   2.443       .  S
O956        H975   0.990       .  S
O956        H979   0.989       .  S
O957        H971   0.990       .  S
O957        H978   0.990       .  S
O958        C962   1.272       .  A
O959        C962   1.288       .  A
O960        H970   0.990       .  S
O961        H974   0.990       .  S
H965       O1354   0.966       .  S
H967       O1350   0.990       .  S
Zr985       O986   2.442       .  S
Zr985       O987   2.449       .  S
Zr985       O988   2.428       .  S
Zr985       O991   2.382       .  S
Zr985       O993   2.373       .  S
Zr985       O994   2.386       .  S
Zr985       O995   2.402       .  S
Zr985       O996   2.410       .  S
O986       H1042   0.990       .  S
O986       H1050   0.990       .  S
O987       C1007   1.285       .  A
O988       C1009   1.280       .  A
O989       Zr999   2.477       .  S
O989       C1008   1.293       .  A
O990       Zr998   2.442       .  S
O990       C1009   1.286       .  A
O991       C1008   1.271       .  A
O992      Zr1000   2.439       .  S
O992       C1007   1.284       .  A
O993       Zr998   2.402       .  S
O993      Zr1000   2.380       .  S
O994       Zr999   2.390       .  S
O994      Zr1000   2.358       .  S
O994       H1029   0.963       .  S
O995       Zr998   2.400       .  S
O995      Zr1015   2.381       .  S
O995       H1032   0.964       .  S
O996       Zr999   2.397       .  S
O996      Zr1015   2.388       .  S
Zr997      O1022   2.442       .  S
Zr997      O1016   2.465       .  S
Zr997      O1024   2.384       .  S
Zr997      O1012   2.363       .  S
Zr997      O1003   2.407       .  S
Zr997      O1004   2.413       .  S
Zr997      O1005   2.367       .  S
Zr997      O1006   2.371       .  S
Zr998      O1017   2.437       .  S
Zr998      O1010   2.435       .  S
Zr998      O1011   2.464       .  S
Zr998      O1004   2.373       .  S
Zr998      O1005   2.406       .  S
Zr999      O1001   2.436       .  S
Zr999      O1023   2.434       .  S
Zr999      O1025   2.494       .  S
Zr999      O1003   2.375       .  S
Zr999      O1006   2.404       .  S
Zr1000     O1026   2.435       .  S
Zr1000     O1027   2.420       .  S
Zr1000     O1002   2.435       .  S
Zr1000     O1003   2.386       .  S
Zr1000     O1004   2.372       .  S
O1001      H1038   0.990       .  S
O1002      H1033   0.990       .  S
O1002      H1047   0.989       .  S
O1004      H1030   0.962       .  S
O1005     Zr1015   2.380       .  S
O1006     Zr1015   2.382       .  S
O1006      H1031   0.966       .  S
C1007      C1060   1.489       .  S
C1008      C1052   1.478       .  S
C1009      C1062   1.484       .  S
O1010      H1046   0.990       .  S
O1011      C1013   1.295       .  A
O1012      C1013   1.270       .  A
O1014     Zr1015   2.427       .  S
O1014      H1043   0.990       .  S
Zr1015     O1018   2.438       .  S
Zr1015     O1019   2.437       .  S
Zr1015     O1020   2.419       .  S
O1016      C1021   1.287       .  A
O1017      H1034   0.990       .  S
O1017      H1049   0.990       .  S
O1018      H1035   0.990       .  S
O1019      H1039   0.990       .  S
O1019      H1048   0.989       .  S
O1020      C1021   1.280       .  A
O1022      H1041   0.990       .  S
O1022      H1045   0.989       .  S
O1023      H1037   0.990       .  S
O1023      H1044   0.989       .  S
O1024      C1028   1.266       .  A
O1025      C1028   1.292       .  A
O1026      H1036   0.990       .  S
O1027      H1040   0.990       .  S
C1051      C1114   1.480       .  S
C1051      C1052   1.370       .  D
C1052      C1518   1.505       .  S
C1053      C1054   1.415       .  A
C1053      C1058   1.429       .  A
C1053      C1074   1.512       .  S
C1054      C1055   1.416       .  A
C1054      C1117   1.486       .  S
C1055      C1056   1.415       .  A
C1055      C1094   1.488       .  S
C1056      C1057   1.431       .  A
C1056      C1064   1.510       .  S
C1057      C1058   1.441       .  A
C1057      C1107   1.493       .  S
C1058      C1087   1.510       .  S
C1059      C1077   1.545       .  S
C1059      C1060   1.392       .  D
C1061      C1498   1.501       .  S
C1061      C1062   1.376       .  D
C1063      C1064   1.398       .  A
C1063      C1068   1.397       .  A
C1063      H1070   1.078       .  S
C1064      C1065   1.413       .  A
C1065      C1066   1.416       .  A
C1065      F1072   1.356       .  S
C1066      C1067   1.412   1_655  A
C1066      H1071   1.082   1_655  S
C1067      C1068   1.409   1_455  A
C1073      C1074   1.412       .  A
C1073      C1078   1.409       .  A
C1073      H1080   1.081       .  S
C1074      C1075   1.393       .  A
C1075      C1076   1.386       .  A
C1075      F1082   1.354       .  S
C1076      C1077   1.429       .  A
C1076      H1081   1.076       .  S
C1077      C1078   1.409       .  A
C1078      F1079   1.341       .  S
C1083      C1084   1.402       .  A
C1083      C1088   1.398   1_565  A
C1083      H1504   1.081       .  S
C1084      C1475   1.501       .  S
C1084      C1085   1.407       .  A
C1085      C1086   1.409   1_565  A
C1085      F1092   1.357       .  S
C1086      C1087   1.412       .  A
C1086      H1091   1.083       .  S
C1087      C1088   1.409       .  A
C1088      F1089   1.353       .  S
H1090      C1497   1.081       .  S
C1093      C1094   1.402       .  A
C1093      C1098   1.404       .  A
C1093      H1100   1.082       .  S
C1094      C1095   1.399       .  A
C1095      C1096   1.392       .  A
C1095      F1102   1.359       .  S
C1096      C1097   1.409       .  A
C1096      H1101   1.081       .  S
C1097      C1098   1.411       .  A
C1103      C1104   1.409       .  A
C1103      C1108   1.400   1_565  A
C1103      H1110   1.082       .  S
C1104      C1466   1.505       .  S
C1104      C1105   1.412       .  A
C1105      C1106   1.400   1_565  A
C1105      F1526   1.356       .  S
C1106      C1107   1.399       .  A
C1106      H1111   1.077       .  S
C1107      C1108   1.402       .  A
C1108      F1109   1.354       .  S
F1112      C1519   1.356       .  S
C1113      C1114   1.406       .  A
C1113      C1118   1.394       .  A
C1113      H1120   1.083       .  S
C1114      C1115   1.400       .  A
C1115      C1116   1.385       .  A
C1115      F1122   1.357       .  S
C1116      C1117   1.401       .  A
C1116      H1121   1.077       .  S
C1117      C1118   1.404       .  A
C1118      F1119   1.357       .  S
C1123      C1124   1.405       .  A
C1123      C1128   1.404       .  A
C1123      H1130   1.081       .  S
C1124      C1125   1.414       .  A
C1125      C1126   1.393       .  A
C1125      F1132   1.355       .  S
C1126      C1127   1.396       .  A
C1126      H1131   1.079       .  S
C1127      C1128   1.406       .  A
C1128      F1129   1.354       .  S
C1133      C1134   1.402       .  A
C1133      C1138   1.400       .  A
C1133      H1140   1.083       .  S
C1134      C1135   1.409       .  A
C1135      C1136   1.403       .  A
C1135      F1142   1.355       .  S
C1136      C1137   1.404       .  A
C1136      H1141   1.082       .  S
C1137      C1138   1.414       .  A
C1138      F1139   1.357       .  S
C1143      C1558   1.411       .  A
C1143      C1148   1.413       .  A
C1143      H1150   1.078       .  S
C1144      C1557   1.411       .  A
C1144      C1145   1.412       .  A
C1145      C1146   1.395       .  A
C1145      F1152   1.347   1_545  S
C1146      C1147   1.395       .  A
C1146      H1151   1.082       .  S
C1147      C1562   1.409       .  A
C1148      C1561   1.409       .  A
C1148      F1149   1.357       .  S
C1153      C1568   1.402       .  A
C1153      C1158   1.397       .  A
C1153      H1160   1.079       .  S
C1154      C1567   1.402       .  A
C1154      C1155   1.412       .  A
C1155      C1156   1.416       .  A
C1155      F1162   1.355       .  S
C1156      C1157   1.411       .  A
C1156      H1161   1.083       .  S
C1157      C1572   1.409       .  A
C1157      C1325   1.521       .  S
C1158      C1571   1.409       .  A
C1158      F1159   1.352       .  S
C1163      C1164   1.401       .  A
C1163      C1168   1.399       .  A
C1163      H1170   1.082       .  S
C1165      C1166   1.387       .  A
C1165      F1172   1.357       .  S
C1166      H1171   1.082       .  S
C1167      C1168   1.411       .  A
C1168      F1169   1.357       .  S
C1173      C1178   1.366       .  A
C1173      H1180   1.080       .  S
C1174      C1175   1.400       .  A
C1175      C1176   1.401       .  A
C1175      F1182   1.350       .  S
C1176      C1177   1.415       .  A
C1176      H1181   1.069       .  S
C1178      F1179   1.355       .  S
C1183      C1184   1.402       .  A
C1183      C1188   1.383       .  A
C1183      H1190   1.082       .  S
C1184      C1185   1.408       .  A
C1185      C1186   1.389       .  A
C1185      F1192   1.356       .  S
C1186      C1187   1.397       .  A
C1186      H1191   1.082       .  S
C1187      C1188   1.398       .  A
C1188      F1189   1.356       .  S
C1193      C1194   1.404       .  A
C1193      C1198   1.404       .  A
C1193      H1200   1.081       .  S
C1194      C1195   1.408       .  A
C1195      C1610   1.409       .  A
C1195      F1202   1.353       .  S
C1196      C1609   1.409       .  A
C1196      C1197   1.410       .  A
C1196      H1201   1.083       .  S
C1197      C1612   1.408       .  A
C1198      C1611   1.408       .  A
C1198      F1199   1.357       .  S
C1203      C1204   1.406       .  A
C1203      C1208   1.407       .  A
C1203      H1210   1.083       .  S
C1204      C1205   1.404       .  A
C1205      C1206   1.402       .  A
C1205      F1212   1.356       .  S
C1206      C1207   1.411       .  A
C1207      C1208   1.412       .  A
C1208      F1209   1.355       .  S
C1213      C1628   1.409       .  A
C1213      C1218   1.407       .  A
C1213      H1634   1.080       .  S
C1214      C1627   1.409       .  A
C1214      C1629   1.409       .  A
C1215      C1628   1.409       .  A
C1215      C1216   1.403       .  A
C1215      F1222   1.357       .  S
C1216      C1217   1.406       .  A
C1216      H1221   1.082       .  S
C1217      C1218   1.407       .  A
C1218      F1219   1.354       .  S
H1220      C1627   1.080       .  S
C1223      C1224   1.401       .  A
C1223      C1228   1.404       .  A
C1223      H1230   1.080       .  S
C1224      C1225   1.414       .  A
C1225      C1226   1.416       .  A
C1225      F1232   1.354       .  S
C1226      C1227   1.410       .  A
C1226      H1231   1.082       .  S
C1227      C1228   1.416       .  A
C1228      F1229   1.353       .  S
C1233      C1234   1.399       .  A
C1233      C1238   1.400       .  A
C1233      H1240   1.082       .  S
C1234      C1235   1.415       .  A
C1235      C1236   1.419       .  A
C1235      F1242   1.356       .  S
C1236      C1237   1.414       .  A
C1236      H1241   1.080       .  S
C1237      C1238   1.415       .  A
C1238      F1239   1.354       .  S
Zr1243     O1244   2.441       .  S
Zr1243     O1245   2.469       .  S
Zr1243     O1246   2.398       .  S
Zr1243     O1249   2.365       .  S
Zr1243     O1251   2.369       .  S
Zr1243     O1252   2.371       .  S
Zr1243     O1253   2.410       .  S
Zr1243     O1254   2.405       .  S
O1244      H1300   0.990       .  S
O1244      H1308   0.989       .  S
O1245      C1265   1.288       .  A
O1246      C1267   1.270       .  A
O1247     Zr1257   2.455       .  S
O1247      C1266   1.290       .  A
O1248     Zr1256   2.484       .  S
O1248      C1267   1.293       .  A
O1249      C1266   1.270       .  A
O1250     Zr1258   2.417       .  S
O1250      C1265   1.278       .  A
O1251     Zr1256   2.416       .  S
O1251     Zr1258   2.384       .  S
O1252     Zr1257   2.402       .  S
O1252     Zr1258   2.377       .  S
O1252      H1287   0.966       .  S
O1253     Zr1256   2.428       .  S
O1253     Zr1273   2.379       .  S
O1253      H1290   0.962       .  S
O1254     Zr1257   2.379       .  S
O1254     Zr1273   2.401       .  S
Zr1255     O1280   2.443       .  S
Zr1255     O1274   2.427       .  S
Zr1255     O1282   2.408       .  S
Zr1255     O1270   2.381       .  S
Zr1255     O1261   2.395       .  S
Zr1255     O1262   2.401       .  S
Zr1255     O1263   2.378       .  S
Zr1255     O1264   2.373       .  S
Zr1256     O1275   2.436       .  S
Zr1256     O1268   2.435       .  S
Zr1256     O1269   2.493       .  S
Zr1256     O1262   2.405       .  S
Zr1256     O1263   2.412       .  S
Zr1257     O1259   2.436       .  S
Zr1257     O1281   2.436       .  S
Zr1257     O1283   2.441       .  S
Zr1257     O1261   2.384       .  S
Zr1257     O1264   2.409       .  S
Zr1258     O1284   2.433       .  S
Zr1258     O1285   2.421       .  S
Zr1258     O1260   2.436       .  S
Zr1258     O1261   2.391       .  S
Zr1258     O1262   2.356       .  S
O1259      H1296   0.990   1_655  S
O1260      H1291   0.990       .  S
O1260      H1305   0.990       .  S
O1262      H1288   0.960       .  S
O1263     Zr1273   2.370       .  S
O1264     Zr1273   2.367       .  S
O1264      H1289   0.966       .  S
C1265      C1323   1.495       .  S
C1266      C1321   1.460       .  S
C1267      C1332   1.486       .  S
O1268      H1304   0.990       .  S
O1269      C1271   1.298       .  A
O1270      C1271   1.273       .  A
C1271      C1315   1.478       .  S
O1272     Zr1273   2.438       .  S
O1272      H1301   0.990       .  S
Zr1273     O1276   2.437       .  S
Zr1273     O1277   2.444       .  S
Zr1273     O1278   2.417       .  S
O1274      C1279   1.279       .  A
O1275      H1292   0.990       .  S
O1275      H1307   0.990       .  S
O1276      H1293   0.990       .  S
O1277      H1297   0.990       .  S
O1277      H1306   0.989       .  S
O1278      C1279   1.275       .  A
C1279      C1318   1.477       .  S
O1280      H1299   0.990       .  S
O1280      H1303   0.989       .  S
O1281      H1295   0.990       .  S
O1281      H1302   0.990       .  S
O1282      C1286   1.275       .  A
O1283      C1286   1.286       .  A
O1284      H1294   0.991       .  S
O1285      H1298   0.990       .  S
C1286      C1319   1.470       .  S
C1309      C1310   1.421       .  A
C1309      C1314   1.410       .  A
C1309      C1648   1.522       .  S
C1310      C1311   1.452       .  A
C1310      C1631   1.502       .  S
C1311      C1312   1.445       .  A
C1311      C1608   1.507       .  S
C1312      C1313   1.421       .  A
C1312      C1638   1.516       .  S
C1313      C1314   1.415       .  A
C1313      C1618   1.505       .  S
C1314      C1601   1.468       .  S
C1315      C1611   1.512       .  S
C1315      C1316   1.364       .  D
C1316      C1361   1.474       .  S
C1316      C1598   1.476       .  S
C1317      C1376   1.470       .  S
C1317      C1651   1.526       .  S
C1317      C1318   1.381       .  D
C1319      C1628   1.506       .  S
C1319      C1320   1.371       .  D
C1320      C1369   1.484       .  S
C1321      C1581   1.490       .  S
C1321      C1322   1.375   1_655  D
C1322      C1591   1.524   1_455  S
C1323      C1558   1.517       .  S
C1324      C1435   1.494       .  S
C1324      C1568   1.511   1_565  S
C1325      C1330   1.412       .  A
C1326      C1327   1.421       .  A
C1326      C1588   1.469       .  S
C1327      C1548   1.502       .  S
C1328      C1329   1.421       .  A
C1328      C1561   1.500       .  S
C1329      C1578   1.477       .  S
C1330      C1541   1.497       .  S
C1331      C1442   1.486       .  S
C1331      C1538   1.508       .  S
C1331      C1332   1.366       .  D
C1332      C1551   1.507       .  S
Zr1333     O1334   2.449       .  S
Zr1333     O1344   2.403       .  S
O1334      H1390   0.990       .  S
O1334      H1398   0.991       .  S
O1336      C1357   1.274       .  A
O1337     Zr1347   2.444       .  S
O1337      C1356   1.288       .  A
O1338     Zr1346   2.453   1_556  S
O1338      C1357   1.291       .  A
O1339      C1356   1.271       .  A
O1340     Zr1348   2.406       .  S
O1340      C1355   1.277       .  A
O1341     Zr1346   2.407   1_556  S
O1342     Zr1347   2.395       .  S
O1342      H1377   0.966       .  S
O1343     Zr1346   2.396   1_556  S
O1343      H1380   0.964       .  S
O1344     Zr1363   2.391   1_556  S
Zr1345     O1360   2.366       .  S
Zr1345     O1352   2.401       .  S
Zr1345     O1353   2.373       .  S
Zr1346     O1365   2.436       .  S
Zr1346     O1358   2.434   1_554  S
Zr1346     O1359   2.468       .  S
Zr1346     O1352   2.390       .  S
Zr1346     O1353   2.379       .  S
Zr1347     O1349   2.435   1_556  S
Zr1347     O1371   2.437       .  S
Zr1347     O1373   2.451   1_556  S
Zr1347     O1351   2.386   1_556  S
Zr1348     O1374   2.435       .  S
Zr1348     O1375   2.425   1_556  S
O1349      H1386   0.990   1_554  S
O1350      H1395   0.990       .  S
O1352      H1378   0.964       .  S
O1354     Zr1363   2.380       .  S
C1355      C1475   1.494       .  S
C1356      C1465   1.478       .  S
C1357      C1473   1.470       .  S
O1358      H1394   0.990   1_556  S
O1359      C1361   1.294       .  A
O1360      C1361   1.269       .  A
O1362     Zr1363   2.431   1_556  S
O1362      H1391   0.990       .  S
Zr1363     O1366   2.438       .  S
Zr1363     O1367   2.441       .  S
Zr1363     O1368   2.413       .  S
O1364      C1369   1.286       .  A
O1365      H1382   0.990       .  S
O1365      H1397   0.990       .  S
O1366      H1383   0.990       .  S
O1367      H1387   0.990       .  S
O1367      H1396   0.989       .  S
O1368      C1369   1.279       .  A
O1370      H1389   0.990       .  S
O1370      H1393   0.989       .  S
O1371      H1385   0.990       .  S
O1371      H1392   0.990       .  S
O1372      C1376   1.272       .  A
O1373      C1376   1.288       .  A
O1374      H1384   0.990       .  S
O1375      H1388   0.990       .  S
Zr1399     O1400   2.442       .  S
Zr1399     O1401   2.449       .  S
Zr1399     O1402   2.428       .  S
Zr1399     O1405   2.382       .  S
Zr1399     O1407   2.373       .  S
Zr1399     O1408   2.386       .  S
Zr1399     O1409   2.402       .  S
Zr1399     O1410   2.410       .  S
O1400      H1456   0.990       .  S
O1400      H1464   0.990       .  S
O1401      C1421   1.285       .  A
O1402      C1423   1.280       .  A
O1403     Zr1413   2.477       .  S
O1403      C1422   1.293       .  A
O1404     Zr1412   2.442       .  S
O1404      C1423   1.286       .  A
O1405      C1422   1.271       .  A
O1406     Zr1414   2.439       .  S
O1406      C1421   1.284       .  A
O1407     Zr1412   2.402       .  S
O1407     Zr1414   2.380       .  S
O1408     Zr1413   2.390       .  S
O1408     Zr1414   2.358       .  S
O1408      H1443   0.963       .  S
O1409     Zr1412   2.400       .  S
O1409     Zr1429   2.381       .  S
O1409      H1446   0.964       .  S
O1410     Zr1413   2.397       .  S
O1410     Zr1429   2.388       .  S
Zr1411     O1436   2.442       .  S
Zr1411     O1430   2.465       .  S
Zr1411     O1438   2.384       .  S
Zr1411     O1426   2.363       .  S
Zr1411     O1417   2.407       .  S
Zr1411     O1418   2.413       .  S
Zr1411     O1419   2.367       .  S
Zr1411     O1420   2.371       .  S
Zr1412     O1431   2.437       .  S
Zr1412     O1424   2.435       .  S
Zr1412     O1425   2.464       .  S
Zr1412     O1418   2.373       .  S
Zr1412     O1419   2.406       .  S
Zr1413     O1415   2.436       .  S
Zr1413     O1437   2.434       .  S
Zr1413     O1439   2.494       .  S
Zr1413     O1417   2.375       .  S
Zr1413     O1420   2.404       .  S
Zr1414     O1440   2.435       .  S
Zr1414     O1441   2.420       .  S
Zr1414     O1416   2.435       .  S
Zr1414     O1417   2.386       .  S
Zr1414     O1418   2.372       .  S
O1415      H1452   0.990       .  S
O1416      H1447   0.990       .  S
O1416      H1461   0.989       .  S
O1418      H1444   0.962       .  S
O1419     Zr1429   2.380       .  S
O1420     Zr1429   2.382       .  S
O1420      H1445   0.966       .  S
C1421      C1474   1.489       .  S
C1422      C1466   1.478       .  S
C1423      C1476   1.484       .  S
O1424      H1460   0.990       .  S
O1425      C1427   1.295       .  A
O1426      C1427   1.270       .  A
O1428     Zr1429   2.427   1_545  S
O1428      H1457   0.990       .  S
Zr1429     O1432   2.438       .  S
Zr1429     O1433   2.437   1_565  S
Zr1429     O1434   2.419       .  S
O1430      C1435   1.287       .  A
O1431      H1448   0.990       .  S
O1431      H1463   0.990       .  S
O1432      H1449   0.990   1_565  S
O1433      H1453   0.990       .  S
O1433      H1462   0.989   1_545  S
O1434      C1435   1.280       .  A
O1436      H1455   0.990       .  S
O1436      H1459   0.989       .  S
O1437      H1451   0.990       .  S
O1437      H1458   0.989       .  S
O1438      C1442   1.266       .  A
O1439      C1442   1.292       .  A
O1440      H1450   0.990       .  S
O1441      H1454   0.990       .  S
C1465      C1528   1.480       .  S
C1465      C1466   1.370       .  D
C1467      C1468   1.415       .  A
C1467      C1472   1.429       .  A
C1467      C1488   1.512       .  S
C1468      C1469   1.416       .  A
C1468      C1531   1.486       .  S
C1469      C1470   1.415       .  A
C1469      C1508   1.488       .  S
C1470      C1471   1.431       .  A
C1470      C1478   1.510       .  S
C1471      C1472   1.441       .  A
C1471      C1521   1.493       .  S
C1472      C1501   1.510       .  S
C1473      C1491   1.545       .  S
C1473      C1474   1.392       .  D
C1475      C1476   1.376       .  D
C1477      C1478   1.398       .  A
C1477      C1482   1.397       .  A
C1477      H1484   1.078       .  S
C1478      C1479   1.413       .  A
C1479      C1480   1.416       .  A
C1479      F1486   1.356       .  S
C1480      C1481   1.412   1_655  A
C1480      H1485   1.082   1_655  S
C1481      C1482   1.409   1_455  A
C1487      C1488   1.412       .  A
C1487      C1492   1.409       .  A
C1487      H1494   1.081       .  S
C1488      C1489   1.393       .  A
C1489      C1490   1.386       .  A
C1489      F1496   1.354       .  S
C1490      C1491   1.429       .  A
C1490      H1495   1.076       .  S
C1491      C1492   1.409       .  A
C1492      F1493   1.341       .  S
C1497      C1498   1.402       .  A
C1497      C1502   1.398       .  A
C1498      C1499   1.407       .  A
C1499      C1500   1.409       .  A
C1499      F1506   1.357       .  S
C1500      C1501   1.412       .  A
C1500      H1505   1.083       .  S
C1501      C1502   1.409       .  A
C1502      F1503   1.353       .  S
C1507      C1508   1.402       .  A
C1507      C1512   1.404       .  A
C1507      H1514   1.082       .  S
C1508      C1509   1.399       .  A
C1509      C1510   1.392       .  A
C1509      F1516   1.359       .  S
C1510      C1511   1.409       .  A
C1510      H1515   1.081       .  S
C1511      C1512   1.411       .  A
C1517      C1518   1.409       .  A
C1517      C1522   1.400       .  A
C1517      H1524   1.082       .  S
C1518      C1519   1.412       .  A
C1519      C1520   1.400       .  A
C1520      C1521   1.399       .  A
C1520      H1525   1.077       .  S
C1521      C1522   1.402       .  A
C1522      F1523   1.354       .  S
C1527      C1528   1.406       .  A
C1527      C1532   1.394       .  A
C1527      H1534   1.083       .  S
C1528      C1529   1.400       .  A
C1529      C1530   1.385       .  A
C1529      F1536   1.357       .  S
C1530      C1531   1.401       .  A
C1530      H1535   1.077       .  S
C1531      C1532   1.404       .  A
C1532      F1533   1.357       .  S
C1537      C1538   1.405       .  A
C1537      C1542   1.404       .  A
C1537      H1544   1.081       .  S
C1538      C1539   1.414       .  A
C1539      C1540   1.393       .  A
C1539      F1546   1.355       .  S
C1540      C1541   1.396       .  A
C1540      H1545   1.079       .  S
C1541      C1542   1.406       .  A
C1542      F1543   1.354       .  S
C1547      C1548   1.402       .  A
C1547      C1552   1.400       .  A
C1547      H1554   1.083       .  S
C1548      C1549   1.409       .  A
C1549      C1550   1.403       .  A
C1549      F1556   1.355       .  S
C1550      C1551   1.404       .  A
C1550      H1555   1.082       .  S
C1551      C1552   1.414       .  A
C1552      F1553   1.357       .  S
C1557      C1562   1.413       .  A
C1557      H1564   1.078       .  S
C1558      C1559   1.412       .  A
C1559      C1560   1.395       .  A
C1559      F1566   1.347       .  S
C1560      C1561   1.395       .  A
C1560      H1565   1.082       .  S
C1562      F1563   1.357       .  S
C1567      C1572   1.397       .  A
C1567      H1574   1.079       .  S
C1568      C1569   1.412   1_545  A
C1569      C1570   1.416       .  A
C1569      F1576   1.355       .  S
C1570      C1571   1.411   1_565  A
C1570      H1575   1.083       .  S
C1572      F1573   1.352       .  S
C1577      C1578   1.401       .  A
C1577      C1582   1.399       .  A
C1577      H1584   1.082       .  S
C1579      C1580   1.387       .  A
C1579      F1586   1.357       .  S
C1580      H1585   1.082       .  S
C1581      C1582   1.411       .  A
C1582      F1583   1.357       .  S
C1587      C1592   1.366       .  A
C1587      H1594   1.080       .  S
C1588      C1589   1.400       .  A
C1589      C1590   1.401       .  A
C1589      F1596   1.350       .  S
C1590      C1591   1.415       .  A
C1590      H1595   1.069       .  S
C1592      F1593   1.355       .  S
C1597      C1598   1.402       .  A
C1597      C1602   1.383       .  A
C1597      H1604   1.082       .  S
C1598      C1599   1.408       .  A
C1599      C1600   1.389       .  A
C1599      F1606   1.356       .  S
C1600      C1601   1.397       .  A
C1600      H1605   1.082       .  S
C1601      C1602   1.398       .  A
C1602      F1603   1.356       .  S
C1607      C1608   1.404       .  A
C1607      C1612   1.404   1_565  A
C1607      H1614   1.081       .  S
C1608      C1609   1.408   1_565  A
C1609      F1616   1.353   1_545  S
C1610      C1611   1.410       .  A
C1610      H1615   1.083       .  S
C1612      F1613   1.357       .  S
C1617      C1618   1.406       .  A
C1617      C1622   1.407       .  A
C1617      H1624   1.083       .  S
C1618      C1619   1.404       .  A
C1619      C1620   1.402       .  A
C1619      F1626   1.356       .  S
C1620      C1621   1.411       .  A
C1621      C1622   1.412       .  A
C1622      F1623   1.355       .  S
C1627      C1632   1.407   1_545  A
C1629      C1630   1.403   1_545  A
C1629      F1636   1.357       .  S
C1630      C1631   1.406       .  A
C1630      H1635   1.082       .  S
C1631      C1632   1.407       .  A
C1632      F1633   1.354       .  S
C1637      C1638   1.401       .  A
C1637      C1642   1.404       .  A
C1637      H1644   1.080       .  S
C1638      C1639   1.414       .  A
C1639      C1640   1.416       .  A
C1639      F1646   1.354       .  S
C1640      C1641   1.410       .  A
C1640      H1645   1.082       .  S
C1641      C1642   1.416       .  A
C1642      F1643   1.353       .  S
C1647      C1648   1.399       .  A
C1647      C1652   1.400       .  A
C1647      H1654   1.082       .  S
C1648      C1649   1.415       .  A
C1649      C1650   1.419       .  A
C1649      F1656   1.356       .  S
C1650      C1651   1.414       .  A
C1650      H1655   1.080       .  S
C1651      C1652   1.415       .  A
C1652      F1653   1.354       .  S
