geometry optimzed in LAMMPS
_audit_creation_date              2020-11-30 
_audit_creation_method            'lammps2cif' 
_symmetry_space_group_name_H-M    'P1' 
_symmetry_Int_Tables_number       1 
_symmetry_cell_setting            triclinic 
loop_ 
_symmetry_equiv_pos_as_xyz 
  x,y,z 
_cell_length_a                    40.17763854 
_cell_length_b                    40.17708993135875 
_cell_length_c                    29.738957890683253 
_cell_angle_alpha                 90.00172059699833 
_cell_angle_beta                  89.99665538134668 
_cell_angle_gamma                 119.99968945713549 
loop_ 
_atom_site_label 
_atom_site_type_symbol 
_atom_site_fract_x 
_atom_site_fract_y 
_atom_site_fract_z 
_atom_site_charge 
C1          C  0.16710151  0.33309980  0.16782479     0.46900
H2          H  0.16753062  0.33314574  0.20513203    -0.02200
C3          C  0.16632616  0.33305480  0.08073837     0.46900
H4          H  0.16596343  0.33306825  0.04343025    -0.02200
C5          C  0.18750317  0.37421530  0.14778932    -0.15900
C6          C  0.18761531  0.31271073  0.14719542    -0.15600
C7          C  0.12577854  0.31231576  0.14841038    -0.16000
C8          C  0.18706209  0.37418620  0.10075872    -0.16000
C9          C  0.18681100  0.31224254  0.10018658    -0.15500
C10         C  0.12541742  0.31268412  0.10135726    -0.15900
C11         C  0.06532026  0.19104274  0.39848009     0.03700
C12         C  0.06556994  0.19196432  0.35107309     0.03600
C13         C  0.09416158  0.18889411  0.32766270    -0.16900
C14         C  0.12580828  0.19116024  0.35029336     0.03700
C15         C  0.12648251  0.19211248  0.39770428     0.03600
C16         C  0.09477449  0.18891537  0.42111497    -0.16900
H17         H  0.09623756  0.19136445  0.45751298     0.05700
H18         H  0.09513680  0.19133211  0.29126417     0.05700
C19         C  0.06721677  0.37242538  0.39973007     0.03700
C20         C  0.06555354  0.37395573  0.35246823     0.03600
C21         C  0.09356326  0.40655025  0.32971197    -0.16900
C22         C  0.12593336  0.43498162  0.35242157     0.03700
C23         C  0.12765413  0.43306743  0.39967052     0.03600
C24         C  0.09698830  0.40320101  0.42285462    -0.16900
H25         H  0.09929496  0.40093605  0.45897691     0.05700
H26         H  0.09367267  0.40639079  0.29320529     0.05700
C27         C  0.36998598  0.30125361  0.09955701     0.03700
C28         C  0.36911450  0.30018147  0.14779780     0.03600
C29         C  0.40183245  0.30475783  0.17065439    -0.16900
C30         C  0.43121724  0.30126496  0.14920954     0.03700
C31         C  0.43096277  0.30003207  0.10094665     0.03600
C32         C  0.40278135  0.30456082  0.07808363    -0.16900
H33         H  0.40385403  0.30562836  0.04171578     0.05700
H34         H  0.40186876  0.30593929  0.20701972     0.05700
O35         O  0.06320364  0.23972205  0.43872065    -0.77100
C36         C  0.04582107  0.33641058  0.42505105     0.83900
O37         O  0.05737912  0.28349579  0.08644864    -0.78200
O38         O  0.45761504  0.29727560  0.02975680    -0.79700
O39         O  0.42488471  0.18460026  0.43487928    -0.79500
O40         O  0.00879885  0.18302473  0.43490843    -0.78100
Zn41       Zn  0.05490164  0.27547451  0.47695012     1.55700
O42         O  0.42394991  0.23964745  0.43831223    -0.79500
Cd43       Cd  0.47248722  0.19490837  0.47344811     1.59700
Cd44       Cd  0.50259570  0.24922829  0.06169050     1.59600
O45         O  0.45031556  0.15865658  0.02878965    -0.79500
O46         O  0.00143898  0.24933157  0.49533219    -1.90000
Cd47       Cd  0.47394120  0.27670783  0.47442173     1.59900
O48         O  0.48198966  0.19463793  0.08707445    -0.79500
O49         O  0.01020267  0.32272834  0.43345836    -0.78100
C50         C  0.09073642  0.29576129  0.07058601     0.84400
C51         C  0.04411434  0.20516258  0.42494181     0.84100
O52         O  0.06486208  0.32118525  0.44000136    -0.77100
C53         C  0.40937182  0.20475545  0.42551190     0.84900
O54         O  0.09485623  0.29358449  0.02836583    -0.77200
C55         C  0.45697093  0.16256046  0.07107481     0.85000
C56         C  0.45422713  0.28878822  0.07160310     0.85300
O57         O  0.46717699  0.26809973  0.08719942    -0.79600
O58         O  0.06375635  0.32282868  0.31296854    -0.77100
C59         C  0.04494196  0.20737080  0.32555583     0.83900
O60         O  0.05783096  0.27402768  0.16433808    -0.78200
O61         O  0.45765207  0.16044522  0.22045327    -0.79700
O62         O  0.42643627  0.24085670  0.31697255    -0.79500
O63         O  0.00977859  0.32615518  0.31452019    -0.78100
Zn64       Zn  0.05569353  0.27870752  0.27417339     1.55700
O65         O  0.42388304  0.18423390  0.31109963    -0.79500
Cd66       Cd  0.47322832  0.27746318  0.27721645     1.59700
Cd67       Cd  0.00305602  0.25390553  0.18919632     1.59600
O68         O  0.44946075  0.28992938  0.22206266    -0.79500
O69         O  0.00222390  0.25205999  0.25548877    -1.90000
Cd70       Cd  0.47405854  0.19701542  0.27581685     1.59900
O71         O  0.48292093  0.28853626  0.16406423    -0.79500
O72         O  0.00929270  0.18604568  0.31693353    -0.78100
C73         C  0.09140882  0.29461222  0.17991887     0.84400
C74         C  0.04475592  0.33878424  0.32565390     0.84100
O75         O  0.06458614  0.24175077  0.31093451    -0.77100
C76         C  0.41012007  0.20493656  0.32504992     0.84900
O77         O  0.09589675  0.30054249  0.22225835    -0.77200
C78         C  0.45654428  0.29363972  0.17987353     0.85000
C79         C  0.45363582  0.16597640  0.17896067     0.85300
O80         O  0.46654819  0.19976365  0.16380513    -0.79600
C81         C  0.42974342  0.13170566  0.14971860     0.03700
C82         C  0.43207310  0.12960149  0.10175732     0.03600
C83         C  0.40450408  0.09568580  0.08018477    -0.16900
C84         C  0.37055027  0.06797817  0.10153218     0.03700
C85         C  0.36823930  0.07023427  0.14946048     0.03600
C86         C  0.39949898  0.10036667  0.17215591    -0.16900
H87         H  0.39755584  0.10216634  0.20835056     0.05700
H88         H  0.40722192  0.09308112  0.04431194     0.05700
C89         C  0.20232632  0.07018692  0.09939323     0.03700
C90         C  0.19779186  0.06801298  0.14732738     0.03600
C91         C  0.19160778  0.09579415  0.16861241    -0.16900
C92         C  0.19786003  0.12964571  0.14692715     0.03700
C93         C  0.20233575  0.13166966  0.09898831     0.03600
C94         C  0.20124808  0.10031686  0.07663094    -0.16900
H95         H  0.20501031  0.10210436  0.04043857     0.05700
H96         H  0.18633507  0.09326295  0.20449458     0.05700
C97         C  0.30941202  0.43503016  0.39627816     0.03700
C98         C  0.30554832  0.43303638  0.34905372     0.03600
C99         C  0.30620528  0.40312749  0.32581430    -0.16900
C100        C  0.30531876  0.37238935  0.34887263     0.03700
C101        C  0.30881346  0.37399498  0.39611177     0.03600
C102        C  0.31350609  0.40663932  0.41889849    -0.16900
H103        H  0.31340903  0.40652864  0.45540414     0.05700
H104        H  0.30147434  0.40082352  0.28971870     0.05700
O105        O  0.25640761  0.43506040  0.30890603    -0.77100
C106        C  0.16096453  0.45604446  0.32536943     0.83900
O107        O  0.22667234  0.44220436  0.16324468    -0.78200
O108        O  0.20886841  0.05014198  0.22040708    -0.79700
O109        O  0.31536617  0.07579124  0.31102833    -0.79500
O110        O  0.31229962  0.48997208  0.31600546    -0.78100
Zn111      Zn  0.22007065  0.44478892  0.27264584     1.55700
O112        O  0.25937007  0.07474800  0.31500481    -0.79500
Cd113      Cd  0.30215981  0.02582863  0.27510863     1.59700
Cd114      Cd  0.24593236  0.49699647  0.18793209     1.59600
O115        O  0.33896774  0.04236026  0.21995660    -0.79500
O116        O  0.24727322  0.49822760  0.25427893    -1.90000
Cd117      Cd  0.22204326  0.02740564  0.27605559     1.59900
O118        O  0.30012067  0.03353679  0.16276011    -0.79500
O119        O  0.17366585  0.49111118  0.31446853    -0.78100
C120        C  0.20496579  0.40882810  0.17884323     0.84400
C121        C  0.29063147  0.45426871  0.32400467     0.84100
O122        O  0.17659939  0.43697408  0.31197359    -0.77100
C123        C  0.29508997  0.09029118  0.32410161     0.84900
O124        O  0.19780497  0.40469222  0.22093528    -0.77200
C125        C  0.33376423  0.04639638  0.17835479     0.85000
C126        C  0.20541275  0.04289763  0.17822982     0.85300
O127        O  0.21119176  0.01689698  0.16253186    -0.79600
O128        O  0.17665543  0.23981971  0.31003514    -0.77100
C129        C  0.29065974  0.33637223  0.32353924     0.83900
O130        O  0.22718838  0.28432694  0.16201613    -0.78200
O131        O  0.33967680  0.29760743  0.21887268    -0.79700
O132        O  0.25966695  0.18458422  0.31379238    -0.79500
O133        O  0.17421001  0.18305474  0.31369980    -0.78100
Zn134      Zn  0.22066374  0.27541486  0.27158780     1.55700
O135        O  0.31575090  0.23950841  0.31011329    -0.79500
Cd136      Cd  0.22243490  0.19493912  0.27517399     1.59700
Cd137      Cd  0.24683691  0.24930170  0.18686375     1.59600
O138        O  0.20852431  0.15880754  0.21977774    -0.79500
O139        O  0.24798119  0.24932194  0.25325933    -1.90000
Cd140      Cd  0.30281467  0.27668132  0.27421457     1.59900
O141        O  0.21262728  0.19466520  0.16141530    -0.79500
O142        O  0.31249328  0.32252200  0.31542105    -0.78100
C143        C  0.20549059  0.29588746  0.17786141     0.84400
C144        C  0.16112401  0.20524848  0.32378657     0.84100
O145        O  0.25648335  0.32129758  0.30831551    -0.77100
C146        C  0.29536635  0.20465470  0.32303752     0.86300
O147        O  0.19868639  0.29310953  0.21998413    -0.77200
C148        C  0.20574840  0.16264182  0.17748362     0.85000
C149        C  0.33461873  0.28886627  0.17709207     0.85300
O150        O  0.30104212  0.26781883  0.16152662    -0.79600
O151        O  0.17889125  0.43506583  0.43964733    -0.77100
C152        C  0.29543752  0.45606159  0.42341532     0.83900
O153        O  0.21603499  0.44214376  0.08539910    -0.78200
O154        O  0.34155920  0.05008161  0.02848014    -0.79700
O155        O  0.26062081  0.07570423  0.43760891    -0.79500
O156        O  0.17773691  0.48991469  0.43300836    -0.78100
Zn157      Zn  0.22495681  0.44477783  0.47595964     1.55700
O158        O  0.31569248  0.07486572  0.43392385    -0.79500
Cd159      Cd  0.22390911  0.02578834  0.47368878     1.59700
Cd160      Cd  0.25138187  0.49694521  0.06084966     1.59600
O161        O  0.20378354  0.04238308  0.02889113    -0.79500
O162        O  0.25123112  0.49820468  0.49448018    -1.90000
Cd163      Cd  0.30567134  0.02743253  0.47278525     1.59900
O164        O  0.23357088  0.03330392  0.08614352    -0.79500
O165        O  0.31778432  0.49112873  0.43435906    -0.78100
C166        C  0.20417836  0.40877067  0.06971708     0.84400
C167        C  0.16377711  0.45425631  0.42478742     0.84100
O168        O  0.26070678  0.43698626  0.43673143    -0.77100
C169        C  0.29544637  0.09030920  0.42466557     0.84900
O170        O  0.20701083  0.40462904  0.02758671    -0.77200
C171        C  0.21291116  0.04629545  0.07052206     0.85000
C172        C  0.33777841  0.04287708  0.07066730     0.85300
O173        O  0.30598406  0.01693882  0.08639209    -0.79600
O174        O  0.25948761  0.32288133  0.43562603    -0.77100
C175        C  0.16249542  0.20747809  0.42324667     0.83900
O176        O  0.21530653  0.27287378  0.08439274    -0.78200
O177        O  0.20296386  0.16034132  0.02828225    -0.79700
O178        O  0.31447556  0.24061766  0.43198075    -0.79500
O179        O  0.31672767  0.32611427  0.43409509    -0.78100
Zn180      Zn  0.22340053  0.27880228  0.47445709     1.55700
O181        O  0.26015492  0.18413235  0.43716927    -0.79500
Cd182      Cd  0.30432105  0.27734231  0.47150785     1.59700
Cd183      Cd  0.25079284  0.25367637  0.05951633     1.59600
O184        O  0.34031603  0.28974969  0.02680450    -0.79500
O185        O  0.24993621  0.25194426  0.49317101    -1.90000
Cd186      Cd  0.22293369  0.19689935  0.47286042     1.59900
O187        O  0.30555031  0.28873774  0.08473584    -0.79500
O188        O  0.17663323  0.18602203  0.43204126    -0.78100
C189        C  0.20330649  0.29431728  0.06880746     0.84400
C190        C  0.29443532  0.33880938  0.42294473     0.84100
O191        O  0.17739807  0.24192895  0.43771251    -0.77100
C192        C  0.29473019  0.20477417  0.42353146     0.84900
O193        O  0.20554977  0.30089119  0.02656795    -0.77200
C194        C  0.33698990  0.29364159  0.06895653     0.85000
C195        C  0.21270765  0.16589185  0.06971877     0.85300
O196        O  0.23372591  0.19966529  0.08482216    -0.79600
C197        C  0.33289938  0.16667592  0.41819335     0.46900
H198        H  0.33253135  0.16669769  0.45555613    -0.02200
C199        C  0.33383192  0.16664301  0.33042640     0.46900
H200        H  0.33420129  0.16662018  0.29306354    -0.02200
C201        C  0.31285592  0.12598596  0.39739316    -0.15900
C202        C  0.31259226  0.18678210  0.39672693    -0.15600
C203        C  0.37383151  0.18722243  0.39792533    -0.16000
C204        C  0.31332709  0.12597385  0.35131191    -0.16000
C205        C  0.31332488  0.18707917  0.35065325    -0.15500
C206        C  0.37425553  0.18691888  0.35185519    -0.15900
C207        C  0.16710136  0.33309983  0.66782479     0.46900
H208        H  0.16753041  0.33314573  0.70513204    -0.02200
C209        C  0.16632601  0.33305487  0.58073840     0.46900
H210        H  0.16596326  0.33306836  0.54343027    -0.02200
C211        C  0.18750314  0.37421532  0.64778939    -0.15900
C212        C  0.18761517  0.31271076  0.64719539    -0.15600
C213        C  0.12577839  0.31231584  0.64841035    -0.16000
C214        C  0.18706208  0.37418628  0.60075880    -0.16000
C215        C  0.18681081  0.31224254  0.60018655    -0.15500
C216        C  0.12541727  0.31268422  0.60135729    -0.15900
C217        C  0.06532074  0.19104378  0.89847979     0.03700
C218        C  0.06557045  0.19196538  0.85107278     0.03600
C219        C  0.09416205  0.18889507  0.82766240    -0.16900
C220        C  0.12580861  0.19116093  0.85029308     0.03700
C221        C  0.12648279  0.19211306  0.89770402     0.03600
C222        C  0.09477487  0.18891624  0.92111468    -0.16900
H223        H  0.09623794  0.19136534  0.95751270     0.05700
H224        H  0.09513733  0.19133314  0.79126387     0.05700
C225        C  0.06721594  0.37242587  0.89972970     0.03700
C226        C  0.06555297  0.37395607  0.85246778     0.03600
C227        C  0.09356306  0.40655034  0.82971151    -0.16900
C228        C  0.12593316  0.43498159  0.85242117     0.03700
C229        C  0.12765363  0.43306762  0.89967017     0.03600
C230        C  0.09698753  0.40320147  0.92285422    -0.16900
H231        H  0.09929403  0.40093659  0.95897657     0.05700
H232        H  0.09367268  0.40639076  0.79320479     0.05700
C233        C  0.36998597  0.30125348  0.59955634     0.03700
C234        C  0.36911450  0.30018148  0.64779715     0.03600
C235        C  0.40183239  0.30475768  0.67065371    -0.16900
C236        C  0.43121712  0.30126469  0.64920884     0.03700
C237        C  0.43096258  0.30003164  0.60094603     0.03600
C238        C  0.40278117  0.30456033  0.57808293    -0.16900
H239        H  0.40385378  0.30562756  0.54171510     0.05700
H240        H  0.40186877  0.30593923  0.70701904     0.05700
O241        O  0.06320403  0.23972311  0.93872030    -0.77100
C242        C  0.04582036  0.33641111  0.92505079     0.83900
O243        O  0.05737898  0.28349699  0.58644871    -0.78200
O244        O  0.45761567  0.29727572  0.52975660    -0.79700
O245        O  0.42488508  0.18460078  0.93487897    -0.79500
O246        O  0.00879937  0.18302560  0.93490839    -0.78100
Zn247      Zn  0.05490179  0.27547544  0.97694984     1.55700
O248        O  0.42394986  0.23964774  0.93831217    -0.79500
Cd249      Cd  0.47248758  0.19490901  0.97344784     1.59700
Cd250      Cd  0.50259565  0.24922808  0.56169062     1.59600
O251        O  0.45031535  0.15865655  0.52879023    -0.79500
O252        O  0.00143906  0.24933209  0.99533216    -1.90000
Cd253      Cd  0.47394093  0.27670819  0.97442184     1.59900
O254        O  0.48199057  0.19463774  0.58707472    -0.79500
O255        O  0.01020198  0.32272879  0.93345833    -0.78100
C256        C  0.09073617  0.29576125  0.57058621     0.84400
C257        C  0.04411481  0.20516359  0.92494157     0.84100
O258        O  0.06486153  0.32118592  0.94000101    -0.77100
C259        C  0.40937201  0.20475581  0.92551168     0.84900
O260        O  0.09485582  0.29358311  0.52836624    -0.77200
C261        C  0.45697120  0.16256042  0.57107526     0.85000
C262        C  0.45422693  0.28878768  0.57160273     0.85300
O263        O  0.46717596  0.26809847  0.58719906    -0.79600
O264        O  0.06375582  0.32282904  0.81296828    -0.77100
C265        C  0.04494235  0.20737167  0.82555546     0.83900
O266        O  0.05783089  0.27402642  0.66433782    -0.78200
O267        O  0.45765241  0.16044569  0.72045316    -0.79700
O268        O  0.42643596  0.24085685  0.81697194    -0.79500
O269        O  0.00977805  0.32615546  0.81451959    -0.78100
Zn270      Zn  0.05569323  0.27870814  0.77417303     1.55700
O271        O  0.42388352  0.18423438  0.81109970    -0.79500
Cd272      Cd  0.47322797  0.27746339  0.77721603     1.59700
Cd273      Cd  0.00305597  0.25390537  0.68919588     1.59600
O274        O  0.44946049  0.28992900  0.72206182    -0.79500
O275        O  0.00222369  0.25206012  0.75548838    -1.90000
Cd276      Cd  0.47405891  0.19701608  0.77581659     1.59900
O277        O  0.48292132  0.28853670  0.66406353    -0.79500
O278        O  0.00929311  0.18604636  0.81693327    -0.78100
C279        C  0.09140858  0.29461214  0.67991864     0.84400
C280        C  0.04475534  0.33878456  0.82565350     0.84100
O281        O  0.06458636  0.24175162  0.81093400    -0.77100
C282        C  0.41012019  0.20493682  0.82504968     0.84900
O283        O  0.09589627  0.30054345  0.72225796    -0.77200
C284        C  0.45654427  0.29363963  0.67987276     0.85000
C285        C  0.45363570  0.16597668  0.67896065     0.85300
O286        O  0.46654763  0.19976382  0.66380497    -0.79600
C287        C  0.42974334  0.13170583  0.64971889     0.03700
C288        C  0.43207323  0.12960151  0.60175773     0.03600
C289        C  0.40450430  0.09568577  0.58018522    -0.16900
C290        C  0.37055039  0.06797823  0.60153254     0.03700
C291        C  0.36823933  0.07023441  0.64946082     0.03600
C292        C  0.39949891  0.10036693  0.67215625    -0.16900
H293        H  0.39755570  0.10216676  0.70835087     0.05700
H294        H  0.40722232  0.09308096  0.54431245     0.05700
C295        C  0.20232672  0.07018720  0.59939350     0.03700
C296        C  0.19779226  0.06801327  0.64732766     0.03600
C297        C  0.19160831  0.09579454  0.66861268    -0.16900
C298        C  0.19786041  0.12964602  0.64692735     0.03700
C299        C  0.20233608  0.13166992  0.59898852     0.03600
C300        C  0.20124844  0.10031712  0.57663119    -0.16900
H301        H  0.20501060  0.10210459  0.54043880     0.05700
H302        H  0.18633575  0.09326344  0.70449489     0.05700
C303        C  0.30941203  0.43503026  0.89627861     0.03700
C304        C  0.30554868  0.43303667  0.84905413     0.03600
C305        C  0.30620604  0.40312799  0.82581466    -0.16900
C306        C  0.30531940  0.37238975  0.84887291     0.03700
C307        C  0.30881375  0.37399519  0.89611211     0.03600
C308        C  0.31350609  0.40663940  0.91889893    -0.16900
H309        H  0.31340878  0.40652855  0.95540457     0.05700
H310        H  0.30147530  0.40082415  0.78971902     0.05700
O311        O  0.25640783  0.43506048  0.80890640    -0.77100
C312        C  0.16096446  0.45604431  0.82536922     0.83900
O313        O  0.22667220  0.44220436  0.66324469    -0.78200
O314        O  0.20886867  0.05014212  0.72040735    -0.79700
O315        O  0.31536632  0.07579134  0.81102839    -0.79500
O316        O  0.31229982  0.48997225  0.81600577    -0.78100
Zn317      Zn  0.22007076  0.44478887  0.77264596     1.55700
O318        O  0.25937028  0.07474815  0.81500490    -0.79500
Cd319      Cd  0.30215984  0.02582859  0.77510875     1.59700
Cd320      Cd  0.24593267  0.49699643  0.68793213     1.59600
O321        O  0.33896784  0.04236037  0.71995692    -0.79500
O322        O  0.24727349  0.49822756  0.75427898    -1.90000
Cd323      Cd  0.22204346  0.02740575  0.77605585     1.59900
O324        O  0.30012074  0.03353670  0.66276041    -0.79500
O325        O  0.17366586  0.49111103  0.81446823    -0.78100
C326        C  0.20496584  0.40882810  0.67884329     0.84400
C327        C  0.29063170  0.45426889  0.82400504     0.84100
O328        O  0.17659934  0.43697391  0.81197358    -0.77100
C329        C  0.29509017  0.09029136  0.82410161     0.84900
O330        O  0.19780524  0.40469219  0.72093538    -0.77200
C331        C  0.33376431  0.04639644  0.67835511     0.85000
C332        C  0.20541298  0.04289780  0.67823008     0.85300
O333        O  0.21119188  0.01689709  0.66253213    -0.79600
O334        O  0.17665582  0.23982032  0.81003491    -0.77100
C335        C  0.29066029  0.33637266  0.82353936     0.83900
O336        O  0.22718834  0.28432707  0.66201605    -0.78200
O337        O  0.33967698  0.29760778  0.71887210    -0.79700
O338        O  0.25966725  0.18458477  0.81379234    -0.79500
O339        O  0.17421030  0.18305532  0.81369950    -0.78100
Zn340      Zn  0.22066418  0.27541555  0.77158782     1.55700
O341        O  0.31575133  0.23950874  0.81011272    -0.79500
Cd342      Cd  0.22243530  0.19493977  0.77517384     1.59700
Cd343      Cd  0.24683699  0.24930191  0.68686369     1.59600
O344        O  0.20852490  0.15880810  0.71977774    -0.79500
O345        O  0.24798151  0.24932255  0.75325927    -1.90000
Cd346      Cd  0.30281503  0.27668177  0.77421421     1.59900
O347        O  0.21262716  0.19466540  0.66141527    -0.79500
O348        O  0.31249381  0.32252247  0.81542079    -0.78100
C349        C  0.20549071  0.29588777  0.67786137     0.84400
C350        C  0.16112434  0.20524909  0.82378630     0.84100
O351        O  0.25648383  0.32129804  0.80831584    -0.77100
C352        C  0.29536670  0.20465511  0.82303724     0.86300
O353        O  0.19868684  0.29311021  0.71998415    -0.77200
C354        C  0.20574869  0.16264217  0.67748366     0.85000
C355        C  0.33461880  0.28886648  0.67709151     0.85300
O356        O  0.30104214  0.26781899  0.66152621    -0.79600
O357        O  0.17889059  0.43506572  0.93964705    -0.77100
C358        C  0.29543730  0.45606160  0.92341563     0.83900
O359        O  0.21603509  0.44214390  0.58539921    -0.78200
O360        O  0.34155951  0.05008174  0.52848037    -0.79700
O361        O  0.26062089  0.07570441  0.93760890    -0.79500
O362        O  0.17773644  0.48991472  0.93300827    -0.78100
Zn363      Zn  0.22495625  0.44477771  0.97595936     1.55700
O364        O  0.31569246  0.07486575  0.93392362    -0.79500
Cd365      Cd  0.22390905  0.02578830  0.97368853     1.59700
Cd366      Cd  0.25138229  0.49694533  0.56084977     1.59600
O367        O  0.20378386  0.04238332  0.52889141    -0.79500
O368        O  0.25123063  0.49820461  0.99448001    -1.90000
Cd369      Cd  0.30567109  0.02743245  0.97278499     1.59900
O370        O  0.23357096  0.03330385  0.58614380    -0.79500
O371        O  0.31778400  0.49112875  0.93435947    -0.78100
C372        C  0.20417853  0.40877080  0.56971724     0.84400
C373        C  0.16377655  0.45425632  0.92478724     0.84100
O374        O  0.26070643  0.43698625  0.93673137    -0.77100
C375        C  0.29544645  0.09030937  0.92466551     0.84900
O376        O  0.20701122  0.40462918  0.52758693    -0.77200
C377        C  0.21291143  0.04629560  0.57052235     0.85000
C378        C  0.33777859  0.04287719  0.57066754     0.85300
O379        O  0.30598417  0.01693898  0.58639223    -0.79600
O380        O  0.25948779  0.32288144  0.93562611    -0.77100
C381        C  0.16249561  0.20747836  0.92324652     0.83900
O382        O  0.21530674  0.27287413  0.58439261    -0.78200
O383        O  0.20296393  0.16034150  0.52828248    -0.79700
O384        O  0.31447584  0.24061772  0.93198115    -0.79500
O385        O  0.31672787  0.32611442  0.93409545    -0.78100
Zn386      Zn  0.22340082  0.27880238  0.97445714     1.55700
O387        O  0.26015496  0.18413253  0.93716892    -0.79500
Cd388      Cd  0.30432131  0.27734241  0.97150822     1.59700
Cd389      Cd  0.25079299  0.25367666  0.55951609     1.59600
O390        O  0.34031593  0.28974955  0.52680390    -0.79500
O391        O  0.24993637  0.25194425  0.99317114    -1.90000
Cd392      Cd  0.22293368  0.19689934  0.97286033     1.59900
O393        O  0.30555049  0.28873802  0.58473529    -0.79500
O394        O  0.17663323  0.18602212  0.93204109    -0.78100
C395        C  0.20330644  0.29431743  0.56880738     0.84400
C396        C  0.29443552  0.33880950  0.92294494     0.84100
O397        O  0.17739839  0.24192918  0.93771252    -0.77100
C398        C  0.29473033  0.20477432  0.92353138     0.84900
O399        O  0.20554955  0.30089127  0.52656785    -0.77200
C400        C  0.33698993  0.29364160  0.56895591     0.85000
C401        C  0.21270791  0.16589211  0.56971894     0.85300
O402        O  0.23372628  0.19966560  0.58482218    -0.79600
C403        C  0.33289958  0.16667618  0.91819318     0.46900
H404        H  0.33253162  0.16669801  0.95555597    -0.02200
C405        C  0.33383212  0.16664324  0.83042624     0.46900
H406        H  0.33420149  0.16662043  0.79306337    -0.02200
C407        C  0.31285607  0.12598618  0.89739307    -0.15900
C408        C  0.31259244  0.18678233  0.89672677    -0.15600
C409        C  0.37383171  0.18722267  0.89792511    -0.16000
C410        C  0.31332728  0.12597407  0.85131181    -0.16000
C411        C  0.31332516  0.18707951  0.85065306    -0.15500
C412        C  0.37425571  0.18691905  0.85185499    -0.15900
C413        C  0.16710155  0.83309982  0.16782488     0.46900
H414        H  0.16753060  0.83314574  0.20513212    -0.02200
C415        C  0.16632621  0.83305480  0.08073849     0.46900
H416        H  0.16596350  0.83306828  0.04343037    -0.02200
C417        C  0.18750324  0.87421531  0.14778940    -0.15900
C418        C  0.18761533  0.81271071  0.14719555    -0.15600
C419        C  0.12577860  0.81231575  0.14841046    -0.16000
C420        C  0.18706219  0.87418624  0.10075882    -0.16000
C421        C  0.18681100  0.81224251  0.10018672    -0.15500
C422        C  0.12541746  0.81268410  0.10135736    -0.15900
C423        C  0.06532024  0.69104286  0.39848012     0.03700
C424        C  0.06556986  0.69196429  0.35107311     0.03600
C425        C  0.09416146  0.68889397  0.32766271    -0.16900
C426        C  0.12580820  0.69116015  0.35029336     0.03700
C427        C  0.12648247  0.69211254  0.39770429     0.03600
C428        C  0.09477450  0.68891554  0.42111499    -0.16900
H429        H  0.09623764  0.69136476  0.45751299     0.05700
H430        H  0.09513665  0.69133193  0.29126418     0.05700
C431        C  0.06721653  0.87242547  0.39973002     0.03700
C432        C  0.06555345  0.87395573  0.35246815     0.03600
C433        C  0.09356322  0.90655017  0.32971187    -0.16900
C434        C  0.12593326  0.93498155  0.35242147     0.03700
C435        C  0.12765391  0.93306749  0.39967044     0.03600
C436        C  0.09698802  0.90320113  0.42285454    -0.16900
H437        H  0.09929462  0.90093628  0.45897687     0.05700
H438        H  0.09367267  0.90639064  0.29320515     0.05700
C439        C  0.36998589  0.80125346  0.09955689     0.03700
C440        C  0.36911440  0.80018134  0.14779769     0.03600
C441        C  0.40183234  0.80475769  0.17065430    -0.16900
C442        C  0.43121714  0.80126483  0.14920943     0.03700
C443        C  0.43096272  0.80003201  0.10094656     0.03600
C444        C  0.40278126  0.80456069  0.07808351    -0.16900
H445        H  0.40385396  0.80562822  0.04171571     0.05700
H446        H  0.40186865  0.80593913  0.20701963     0.05700
O447        O  0.06320357  0.73972224  0.43872057    -0.77100
C448        C  0.04582085  0.83641068  0.42505103     0.83900
O449        O  0.05737910  0.78349587  0.08644873    -0.78200
O450        O  0.45761510  0.79727558  0.02975671    -0.79700
O451        O  0.42488477  0.68460043  0.43487928    -0.79500
O452        O  0.00879887  0.68302482  0.43490871    -0.78100
Zn453      Zn  0.05490158  0.77547468  0.47695009     1.55700
O454        O  0.42394996  0.73964761  0.43831225    -0.79500
Cd455      Cd  0.47248725  0.69490853  0.47344807     1.59700
Cd456      Cd  0.50259573  0.74922840  0.06169053     1.59600
O457        O  0.45031552  0.65865657  0.02878981    -0.79500
O458        O  0.00143900  0.74933172  0.49533233    -1.90000
Cd459      Cd  0.47394118  0.77670796  0.47442182     1.59900
O460        O  0.48198964  0.69463802  0.08707457    -0.79500
O461        O  0.01020244  0.82272838  0.43345830    -0.78100
C462        C  0.09073641  0.79576124  0.07058614     0.84400
C463        C  0.04411431  0.70516272  0.42494186     0.84100
O464        O  0.06486189  0.82118540  0.44000139    -0.77100
C465        C  0.40937188  0.70475562  0.42551192     0.84900
O466        O  0.09485622  0.79358432  0.02836597    -0.77200
C467        C  0.45697091  0.66256053  0.07107496     0.85000
C468        C  0.45422717  0.78878824  0.07160304     0.85300
O469        O  0.46717705  0.76809979  0.08719942    -0.79600
O470        O  0.06375632  0.82282872  0.31296852    -0.77100
C471        C  0.04494189  0.70737076  0.32555582     0.83900
O472        O  0.05783104  0.77402748  0.16433810    -0.78200
O473        O  0.45765212  0.66044530  0.22045331    -0.79700
O474        O  0.42643627  0.74085681  0.31697250    -0.79500
O475        O  0.00977854  0.82615517  0.31452011    -0.78100
Zn476      Zn  0.05569355  0.77870761  0.27417340     1.55700
O477        O  0.42388329  0.68423410  0.31109990    -0.79500
Cd478      Cd  0.47322830  0.77746334  0.27721644     1.59700
Cd479      Cd  0.00305610  0.75390537  0.18919632     1.59600
O480        O  0.44946065  0.78992924  0.22206249    -0.79500
O481        O  0.00222393  0.75205991  0.25548879    -1.90000
Cd482      Cd  0.47405873  0.69701562  0.27581686     1.59900
O483        O  0.48292101  0.78853641  0.16406409    -0.79500
O484        O  0.00929265  0.68604561  0.31693350    -0.78100
C485        C  0.09140887  0.79461216  0.17991891     0.84400
C486        C  0.04475585  0.83878424  0.32565386     0.84100
O487        O  0.06458607  0.74175076  0.31093455    -0.77100
C488        C  0.41012019  0.70493670  0.32505001     0.84900
O489        O  0.09589677  0.80054258  0.22225836    -0.77200
C490        C  0.45654422  0.79363966  0.17987337     0.85000
C491        C  0.45363572  0.66597651  0.17896076     0.85300
O492        O  0.46654803  0.69976376  0.16380528    -0.79600
C493        C  0.42974325  0.63170580  0.14971872     0.03700
C494        C  0.43207305  0.62960156  0.10175746     0.03600
C495        C  0.40450403  0.59568585  0.08018494    -0.16900
C496        C  0.37055012  0.56797832  0.10153226     0.03700
C497        C  0.36823908  0.57023448  0.14946055     0.03600
C498        C  0.39949874  0.60036689  0.17215596    -0.16900
H499        H  0.39755554  0.60216660  0.20835065     0.05700
H500        H  0.40722194  0.59308108  0.04431210     0.05700
C501        C  0.20232620  0.57018691  0.09939338     0.03700
C502        C  0.19779167  0.56801295  0.14732754     0.03600
C503        C  0.19160761  0.59579415  0.16861252    -0.16900
C504        C  0.19785992  0.62964572  0.14692724     0.03700
C505        C  0.20233566  0.63166966  0.09898840     0.03600
C506        C  0.20124795  0.60031685  0.07663107    -0.16900
H507        H  0.20501015  0.60210436  0.04043869     0.05700
H508        H  0.18633492  0.59326300  0.20449470     0.05700
C509        C  0.30941206  0.93503030  0.39627827     0.03700
C510        C  0.30554837  0.93303646  0.34905382     0.03600
C511        C  0.30620548  0.90312762  0.32581442    -0.16900
C512        C  0.30531890  0.87238947  0.34887279     0.03700
C513        C  0.30881355  0.87399512  0.39611193     0.03600
C514        C  0.31350613  0.90663947  0.41889865    -0.16900
H515        H  0.31340903  0.90652879  0.45540428     0.05700
H516        H  0.30147460  0.90082364  0.28971886     0.05700
O517        O  0.25640762  0.93506038  0.30890605    -0.77100
C518        C  0.16096446  0.95604435  0.32536939     0.83900
O519        O  0.22667252  0.94220432  0.16324465    -0.78200
O520        O  0.20886840  0.55014211  0.22040728    -0.79700
O521        O  0.31536614  0.57579115  0.31102860    -0.79500
O522        O  0.31229965  0.98997210  0.31600545    -0.78100
Zn523      Zn  0.22007062  0.94478890  0.27264584     1.55700
O524        O  0.25937019  0.57474818  0.31500480    -0.79500
Cd525      Cd  0.30215972  0.52582857  0.27510866     1.59700
Cd526      Cd  0.24593256  0.99699643  0.18793191     1.59600
O527        O  0.33896762  0.54236036  0.21995662    -0.79500
O528        O  0.24727332  0.99822758  0.25427880    -1.90000
Cd529      Cd  0.22204330  0.52740577  0.27605580     1.59900
O530        O  0.30012046  0.53353679  0.16276020    -0.79500
O531        O  0.17366580  0.99111107  0.31446844    -0.78100
C532        C  0.20496586  0.90882811  0.17884324     0.84400
C533        C  0.29063148  0.95426873  0.32400469     0.84100
O534        O  0.17659930  0.93697396  0.31197358    -0.77100
C535        C  0.29509005  0.59029126  0.32410169     0.84900
O536        O  0.19780494  0.90469227  0.22093526    -0.77200
C537        C  0.33376405  0.54639649  0.17835483     0.85000
C538        C  0.20541255  0.54289763  0.17823004     0.85300
O539        O  0.21119143  0.51689689  0.16253214    -0.79600
O540        O  0.17665538  0.73981968  0.31003517    -0.77100
C541        C  0.29065978  0.83637232  0.32353938     0.83900
O542        O  0.22718827  0.78432680  0.16201631    -0.78200
O543        O  0.33967671  0.79760732  0.21887258    -0.79700
O544        O  0.25966696  0.68458421  0.31379256    -0.79500
O545        O  0.17421000  0.68305473  0.31369974    -0.78100
Zn546      Zn  0.22066376  0.77541497  0.27158793     1.55700
O547        O  0.31575086  0.73950843  0.31011329    -0.79500
Cd548      Cd  0.22243504  0.69493921  0.27517407     1.59700
Cd549      Cd  0.24683693  0.74930162  0.18686395     1.59600
O550        O  0.20852439  0.65880763  0.21977776    -0.79500
O551        O  0.24798124  0.74932205  0.25325954    -1.90000
Cd552      Cd  0.30281470  0.77668143  0.27421457     1.59900
O553        O  0.21262724  0.69466521  0.16141531    -0.79500
O554        O  0.31249338  0.82252222  0.31542085    -0.78100
C555        C  0.20549061  0.79588749  0.17786156     0.84400
C556        C  0.16112395  0.70524843  0.32378655     0.84100
O557        O  0.25648330  0.82129758  0.30831592    -0.77100
C558        C  0.29536636  0.70465472  0.32303760     0.86300
O559        O  0.19868649  0.79310972  0.21998428    -0.77200
C560        C  0.20574837  0.66264185  0.17748366     0.85000
C561        C  0.33461864  0.78886615  0.17709198     0.85300
O562        O  0.30104203  0.76781870  0.16152654    -0.79600
O563        O  0.17889103  0.93506580  0.43964713    -0.77100
C564        C  0.29543754  0.95606173  0.42341544     0.83900
O565        O  0.21603502  0.94214388  0.08539918    -0.78200
O566        O  0.34155909  0.55008172  0.02848019    -0.79700
O567        O  0.26062096  0.57570429  0.43760893    -0.79500
O568        O  0.17773661  0.98991465  0.43300861    -0.78100
Zn569      Zn  0.22495656  0.94477776  0.47595955     1.55700
O570        O  0.31569262  0.57486577  0.43392382    -0.79500
Cd571      Cd  0.22390923  0.52578830  0.47368875     1.59700
Cd572      Cd  0.25138212  0.99694535  0.06084967     1.59600
O573        O  0.20378358  0.54238327  0.02889122    -0.79500
O574        O  0.25123101  0.99820467  0.49448018    -1.90000
Cd575      Cd  0.30567135  0.52743245  0.47278504     1.59900
O576        O  0.23357041  0.53330353  0.08614371    -0.79500
O577        O  0.31778436  0.99112884  0.43435934    -0.78100
C578        C  0.20417841  0.90877076  0.06971720     0.84400
C579        C  0.16377687  0.95425631  0.42478741     0.84100
O580        O  0.26070674  0.93698641  0.43673142    -0.77100
C581        C  0.29544653  0.59030927  0.42466559     0.84900
O582        O  0.20701084  0.90462911  0.02758685    -0.77200
C583        C  0.21291099  0.54629538  0.07052221     0.85000
C584        C  0.33777825  0.54287722  0.07066737     0.85300
O585        O  0.30598386  0.51693900  0.08639212    -0.79600
O586        O  0.25948763  0.82288146  0.43562603    -0.77100
C587        C  0.16249540  0.70747821  0.42324667     0.83900
O588        O  0.21530667  0.77287389  0.08439282    -0.78200
O589        O  0.20296379  0.66034139  0.02828234    -0.79700
O590        O  0.31447560  0.74061767  0.43198105    -0.79500
O591        O  0.31672771  0.82611444  0.43409536    -0.78100
Zn592      Zn  0.22340065  0.77880239  0.47445707     1.55700
O593        O  0.26015481  0.68413243  0.43716903    -0.79500
Cd594      Cd  0.30432108  0.77734243  0.47150808     1.59700
Cd595      Cd  0.25079286  0.75367643  0.05951628     1.59600
O596        O  0.34031598  0.78974955  0.02680436    -0.79500
O597        O  0.24993626  0.75194436  0.49317106    -1.90000
Cd598      Cd  0.22293369  0.69689947  0.47286038     1.59900
O599        O  0.30555029  0.78873768  0.08473569    -0.79500
O600        O  0.17663318  0.68602214  0.43204133    -0.78100
C601        C  0.20330653  0.79431731  0.06880756     0.84400
C602        C  0.29443537  0.83880953  0.42294487     0.84100
O603        O  0.17739810  0.74192909  0.43771244    -0.77100
C604        C  0.29473017  0.70477422  0.42353149     0.84900
O605        O  0.20554974  0.80089120  0.02656804    -0.77200
C606        C  0.33698984  0.79364146  0.06895637     0.85000
C607        C  0.21270766  0.66589190  0.06971884     0.85300
O608        O  0.23372607  0.69966535  0.08482218    -0.79600
C609        C  0.33289946  0.66667601  0.41819338     0.46900
H610        H  0.33253144  0.66669776  0.45555617    -0.02200
C611        C  0.33383201  0.66664313  0.33042643     0.46900
H612        H  0.33420138  0.66662035  0.29306356    -0.02200
C613        C  0.31285609  0.62598605  0.39739319    -0.15900
C614        C  0.31259229  0.68678216  0.39672698    -0.15600
C615        C  0.37383158  0.68722259  0.39792535    -0.16000
C616        C  0.31332721  0.62597395  0.35131193    -0.16000
C617        C  0.31332494  0.68707924  0.35065330    -0.15500
C618        C  0.37425561  0.68691903  0.35185522    -0.15900
C619        C  0.16710132  0.83309982  0.66782471     0.46900
H620        H  0.16753037  0.83314571  0.70513195    -0.02200
C621        C  0.16632596  0.83305485  0.58073832     0.46900
H622        H  0.16596319  0.83306830  0.54343020    -0.02200
C623        C  0.18750306  0.87421533  0.64778931    -0.15900
C624        C  0.18761516  0.81271078  0.64719532    -0.15600
C625        C  0.12577835  0.81231579  0.64841026    -0.16000
C626        C  0.18706201  0.87418628  0.60075871    -0.16000
C627        C  0.18681078  0.81224254  0.60018649    -0.15500
C628        C  0.12541722  0.81268417  0.60135721    -0.15900
C629        C  0.06532064  0.69104365  0.89847975     0.03700
C630        C  0.06557046  0.69196542  0.85107273     0.03600
C631        C  0.09416210  0.68889516  0.82766238    -0.16900
C632        C  0.12580859  0.69116086  0.85029308     0.03700
C633        C  0.12648268  0.69211285  0.89770403     0.03600
C634        C  0.09477469  0.68891596  0.92111466    -0.16900
H635        H  0.09623767  0.69136491  0.95751269     0.05700
H636        H  0.09513745  0.69133335  0.79126386     0.05700
C637        C  0.06721622  0.87242579  0.89972980     0.03700
C638        C  0.06555311  0.87395609  0.85246792     0.03600
C639        C  0.09356309  0.90655045  0.82971163    -0.16900
C640        C  0.12593326  0.93498169  0.85242124     0.03700
C641        C  0.12765386  0.93306761  0.89967021     0.03600
C642        C  0.09698788  0.90320134  0.92285430    -0.16900
H643        H  0.09929450  0.90093642  0.95897662     0.05700
H644        H  0.09367258  0.90639093  0.79320495     0.05700
C645        C  0.36998599  0.80125360  0.59955651     0.03700
C646        C  0.36911461  0.80018165  0.64779731     0.03600
C647        C  0.40183252  0.80475784  0.67065385    -0.16900
C648        C  0.43121719  0.80126478  0.64920897     0.03700
C649        C  0.43096260  0.80003172  0.60094616     0.03600
C650        C  0.40278120  0.80456047  0.57808308    -0.16900
H651        H  0.40385378  0.80562769  0.54171522     0.05700
H652        H  0.40186892  0.80593938  0.70701917     0.05700
O653        O  0.06320392  0.73972297  0.93872036    -0.77100
C654        C  0.04582056  0.83641101  0.92505084     0.83900
O655        O  0.05737893  0.78349691  0.58644870    -0.78200
O656        O  0.45761567  0.79727581  0.52975673    -0.79700
O657        O  0.42488491  0.68460057  0.93487902    -0.79500
O658        O  0.00879926  0.68302551  0.93490838    -0.78100
Zn659      Zn  0.05490176  0.77547532  0.97695003     1.55700
O660        O  0.42394998  0.73964768  0.93831195    -0.79500
Cd661      Cd  0.47248744  0.69490880  0.97344786     1.59700
Cd662      Cd  0.50259557  0.74922802  0.56169060     1.59600
O663        O  0.45031528  0.65865655  0.52879004    -0.79500
O664        O  0.00143908  0.74933209  0.99533223    -1.90000
Cd665      Cd  0.47394104  0.77670808  0.97442175     1.59900
O666        O  0.48199050  0.69463767  0.58707458    -0.79500
O667        O  0.01020218  0.82272872  0.93345832    -0.78100
C668        C  0.09073611  0.79576128  0.57058614     0.84400
C669        C  0.04411470  0.70516347  0.92494156     0.84100
O670        O  0.06486166  0.82118577  0.94000111    -0.77100
C671        C  0.40937196  0.70475569  0.92551163     0.84900
O672        O  0.09485576  0.79358333  0.52836614    -0.77200
C673        C  0.45697117  0.66256036  0.57107507     0.85000
C674        C  0.45422694  0.78878774  0.57160286     0.85300
O675        O  0.46717595  0.76809850  0.58719917    -0.79600
O676        O  0.06375594  0.82282911  0.81296821    -0.77100
C677        C  0.04494234  0.70737171  0.82555539     0.83900
O678        O  0.05783084  0.77402646  0.66433779    -0.78200
O679        O  0.45765233  0.66044550  0.72045309    -0.79700
O680        O  0.42643610  0.74085684  0.81697199    -0.79500
O681        O  0.00977812  0.82615550  0.81451991    -0.78100
Zn682      Zn  0.05569331  0.77870814  0.77417302     1.55700
O683        O  0.42388337  0.68423424  0.81109968    -0.79500
Cd684      Cd  0.47322812  0.77746327  0.77721601     1.59700
Cd685      Cd  0.00305596  0.75390550  0.68919597     1.59600
O686        O  0.44946063  0.78992909  0.72206194    -0.79500
O687        O  0.00222372  0.75206029  0.75548850    -1.90000
Cd688      Cd  0.47405872  0.69701575  0.77581660     1.59900
O689        O  0.48292126  0.78853656  0.66406358    -0.79500
O690        O  0.00929307  0.68604645  0.81693322    -0.78100
C691        C  0.09140855  0.79461216  0.67991857     0.84400
C692        C  0.04475546  0.83878460  0.82565362     0.84100
O693        O  0.06458641  0.74175164  0.81093391    -0.77100
C694        C  0.41012018  0.70493678  0.82504969     0.84900
O695        O  0.09589628  0.80054350  0.72225788    -0.77200
C696        C  0.45654432  0.79363964  0.67987286     0.85000
C697        C  0.45363571  0.66597654  0.67896055     0.85300
O698        O  0.46654760  0.69976368  0.66380491    -0.79600
C699        C  0.42974347  0.63170569  0.64971872     0.03700
C700        C  0.43207333  0.62960141  0.60175753     0.03600
C701        C  0.40450444  0.59568564  0.58018501    -0.16900
C702        C  0.37055054  0.56797809  0.60153234     0.03700
C703        C  0.36823946  0.57023426  0.64946062     0.03600
C704        C  0.39949904  0.60036677  0.67215603    -0.16900
H705        H  0.39755580  0.60216658  0.70835070     0.05700
H706        H  0.40722243  0.59308083  0.54431223     0.05700
C707        C  0.20232688  0.57018720  0.59939346     0.03700
C708        C  0.19779238  0.56801328  0.64732762     0.03600
C709        C  0.19160836  0.59579453  0.66861260    -0.16900
C710        C  0.19786047  0.62964600  0.64692724     0.03700
C711        C  0.20233617  0.63166990  0.59898841     0.03600
C712        C  0.20124868  0.60031715  0.57663111    -0.16900
H713        H  0.20501095  0.60210465  0.54043873     0.05700
H714        H  0.18633576  0.59326343  0.70449479     0.05700
C715        C  0.30941197  0.93503017  0.89627855     0.03700
C716        C  0.30554860  0.93303660  0.84905407     0.03600
C717        C  0.30620594  0.90312792  0.82581460    -0.16900
C718        C  0.30531930  0.87238969  0.84887283     0.03700
C719        C  0.30881362  0.87399509  0.89611204     0.03600
C720        C  0.31350598  0.90663929  0.91889886    -0.16900
H721        H  0.31340867  0.90652842  0.95540452     0.05700
H722        H  0.30147521  0.90082407  0.78971895     0.05700
O723        O  0.25640775  0.93506046  0.80890644    -0.77100
C724        C  0.16096453  0.95604444  0.82536921     0.83900
O725        O  0.22667216  0.94220437  0.66324467    -0.78200
O726        O  0.20886865  0.55014205  0.72040737    -0.79700
O727        O  0.31536628  0.57579128  0.81102835    -0.79500
O728        O  0.31229980  0.98997217  0.81600557    -0.78100
Zn729      Zn  0.22007085  0.94478892  0.77264591     1.55700
O730        O  0.25937018  0.57474800  0.81500489    -0.79500
Cd731      Cd  0.30216001  0.52582864  0.77510870     1.59700
Cd732      Cd  0.24593259  0.99699648  0.68793215     1.59600
O733        O  0.33896796  0.54236026  0.71995670    -0.79500
O734        O  0.24727337  0.99822758  0.75427896    -1.90000
Cd735      Cd  0.22204347  0.52740563  0.77605582     1.59900
O736        O  0.30012083  0.53353655  0.66276021    -0.79500
O737        O  0.17366604  0.99111123  0.81446853    -0.78100
C738        C  0.20496579  0.90882810  0.67884326     0.84400
C739        C  0.29063165  0.95426883  0.82400496     0.84100
O740        O  0.17659933  0.93697401  0.81197333    -0.77100
C741        C  0.29509010  0.59029127  0.82410155     0.84900
O742        O  0.19780523  0.90469218  0.72093537    -0.77200
C743        C  0.33376441  0.54639628  0.67835488     0.85000
C744        C  0.20541311  0.54289783  0.67823008     0.85300
O745        O  0.21119216  0.51689724  0.66253208    -0.79600
O746        O  0.17665579  0.73982029  0.81003485    -0.77100
C747        C  0.29066026  0.83637267  0.82353922     0.83900
O748        O  0.22718840  0.78432719  0.66201596    -0.78200
O749        O  0.33967704  0.79760768  0.71887230    -0.79700
O750        O  0.25966726  0.68458479  0.81379235    -0.79500
O751        O  0.17421034  0.68305531  0.81369950    -0.78100
Zn752      Zn  0.22066420  0.77541546  0.77158762     1.55700
O753        O  0.31575133  0.73950876  0.81011278    -0.79500
Cd754      Cd  0.22243533  0.69493968  0.77517381     1.59700
Cd755      Cd  0.24683706  0.74930201  0.68686365     1.59600
O756        O  0.20852485  0.65880803  0.71977767    -0.79500
O757        O  0.24798150  0.74932243  0.75325920    -1.90000
Cd758      Cd  0.30281497  0.77668170  0.77421426     1.59900
O759        O  0.21262743  0.69466546  0.66141520    -0.79500
O760        O  0.31249379  0.82252247  0.81542076    -0.78100
C761        C  0.20549068  0.79588776  0.67786128     0.84400
C762        C  0.16112435  0.70524906  0.82378630     0.84100
O763        O  0.25648386  0.82129810  0.80831554    -0.77100
C764        C  0.29536669  0.70465512  0.82303726     0.86300
O765        O  0.19868671  0.79311006  0.71998403    -0.77200
C766        C  0.20574877  0.66264216  0.67748357     0.85000
C767        C  0.33461891  0.78886655  0.67709169     0.85300
O768        O  0.30104225  0.76781914  0.66152632    -0.79600
O769        O  0.17889081  0.93506576  0.93964709    -0.77100
C770        C  0.29543733  0.95606153  0.92341561     0.83900
O771        O  0.21603509  0.94214391  0.58539908    -0.78200
O772        O  0.34155956  0.55008156  0.52848022    -0.79700
O773        O  0.26062078  0.57570447  0.93760890    -0.79500
O774        O  0.17773663  0.98991473  0.93300827    -0.78100
Zn775      Zn  0.22495631  0.94477769  0.97595954     1.55700
O776        O  0.31569229  0.57486568  0.93392355    -0.79500
Cd777      Cd  0.22390888  0.52578838  0.97368853     1.59700
Cd778      Cd  0.25138223  0.99694541  0.56084976     1.59600
O779        O  0.20378381  0.54238311  0.52889144    -0.79500
O780        O  0.25123084  0.99820459  0.99448004    -1.90000
Cd781      Cd  0.30567091  0.52743251  0.97278505     1.59900
O782        O  0.23357120  0.53330394  0.58614375    -0.79500
O783        O  0.31778410  0.99112867  0.93435939    -0.78100
C784        C  0.20417848  0.90877079  0.56971713     0.84400
C785        C  0.16377678  0.95425635  0.92478721     0.84100
O786        O  0.26070650  0.93698621  0.93673150    -0.77100
C787        C  0.29544630  0.59030932  0.92466542     0.84900
O788        O  0.20701108  0.90462913  0.52758681    -0.77200
C789        C  0.21291154  0.54629555  0.57052234     0.85000
C790        C  0.33777869  0.54287703  0.57066740     0.85300
O791        O  0.30598428  0.51693883  0.58639213    -0.79600
O792        O  0.25948768  0.82288129  0.93562602    -0.77100
C793        C  0.16249553  0.70747821  0.92324655     0.83900
O794        O  0.21530661  0.77287401  0.58439261    -0.78200
O795        O  0.20296390  0.66034149  0.52828238    -0.79700
O796        O  0.31447565  0.74061770  0.93198084    -0.79500
O797        O  0.31672783  0.82611441  0.93409547    -0.78100
Zn798      Zn  0.22340072  0.77880229  0.97445717     1.55700
O799        O  0.26015495  0.68413241  0.93716907    -0.79500
Cd800      Cd  0.30432121  0.77734234  0.97150814     1.59700
Cd801      Cd  0.25079293  0.75367660  0.55951614     1.59600
O802        O  0.34031593  0.78974965  0.52680413    -0.79500
O803        O  0.24993631  0.75194424  0.99317115    -1.90000
Cd804      Cd  0.22293369  0.69689934  0.97286036     1.59900
O805        O  0.30555043  0.78873805  0.58473546    -0.79500
O806        O  0.17663325  0.68602205  0.93204104    -0.78100
C807        C  0.20330635  0.79431734  0.56880734     0.84400
C808        C  0.29443543  0.83880941  0.92294488     0.84100
O809        O  0.17739827  0.74192902  0.93771256    -0.77100
C810        C  0.29473024  0.70477425  0.92353131     0.84900
O811        O  0.20554951  0.80089118  0.52656782    -0.77200
C812        C  0.33698991  0.79364167  0.56895612     0.85000
C813        C  0.21270790  0.66589207  0.56971884     0.85300
O814        O  0.23372624  0.69966555  0.58482211    -0.79600
C815        C  0.33289949  0.66667606  0.91819311     0.46900
H816        H  0.33253148  0.66669782  0.95555589    -0.02200
C817        C  0.33383206  0.66664320  0.83042617     0.46900
H818        H  0.33420146  0.66662043  0.79306330    -0.02200
C819        C  0.31285598  0.62598610  0.89739297    -0.15900
C820        C  0.31259237  0.68678226  0.89672671    -0.15600
C821        C  0.37383164  0.68722258  0.89792506    -0.16000
C822        C  0.31332720  0.62597400  0.85131172    -0.16000
C823        C  0.31332510  0.68707945  0.85065301    -0.15500
C824        C  0.37425565  0.68691906  0.85185494    -0.15900
C825        C  0.66710167  0.33309989  0.16782482     0.46900
H826        H  0.66753077  0.33314585  0.20513207    -0.02200
C827        C  0.66632627  0.33305485  0.08073844     0.46900
H828        H  0.66596352  0.33306826  0.04343032    -0.02200
C829        C  0.68750334  0.37421538  0.14778935    -0.15900
C830        C  0.68761547  0.31271081  0.14719546    -0.15600
C831        C  0.62577868  0.31231582  0.14841046    -0.16000
C832        C  0.68706227  0.37418628  0.10075876    -0.16000
C833        C  0.68681110  0.31224257  0.10018663    -0.15500
C834        C  0.62541753  0.31268418  0.10135736    -0.15900
C835        C  0.56532001  0.19104247  0.39848011     0.03700
C836        C  0.56556963  0.19196402  0.35107310     0.03600
C837        C  0.59416128  0.18889383  0.32766265    -0.16900
C838        C  0.62580804  0.19116003  0.35029328     0.03700
C839        C  0.62648229  0.19211224  0.39770421     0.03600
C840        C  0.59477427  0.18891509  0.42111493    -0.16900
H841        H  0.59623738  0.19136416  0.45751294     0.05700
H842        H  0.59513646  0.19133183  0.29126413     0.05700
C843        C  0.56721678  0.37242533  0.39973000     0.03700
C844        C  0.56555369  0.37395561  0.35246813     0.03600
C845        C  0.59356345  0.40655007  0.32971185    -0.16900
C846        C  0.62593344  0.43498155  0.35242148     0.03700
C847        C  0.62765405  0.43306741  0.39967046     0.03600
C848        C  0.59698821  0.40320100  0.42285453    -0.16900
H849        H  0.59929479  0.40093609  0.45897686     0.05700
H850        H  0.59367295  0.40639052  0.29320512     0.05700
C851        C  0.86998619  0.30125404  0.09955703     0.03700
C852        C  0.86911478  0.30018200  0.14779786     0.03600
C853        C  0.90183280  0.30475841  0.17065436    -0.16900
C854        C  0.93121745  0.30126531  0.14920949     0.03700
C855        C  0.93096294  0.30003241  0.10094661     0.03600
C856        C  0.90278159  0.30456131  0.07808362    -0.16900
H857        H  0.90385427  0.30562885  0.04171577     0.05700
H858        H  0.90186923  0.30594002  0.20701969     0.05700
O859        O  0.56320353  0.23972190  0.43872060    -0.77100
C860        C  0.54582109  0.33641057  0.42505104     0.83900
O861        O  0.55737912  0.28349548  0.08644870    -0.78200
O862        O  0.95761505  0.29727567  0.02975673    -0.79700
O863        O  0.92488471  0.18460026  0.43487921    -0.79500
O864        O  0.50879871  0.18302453  0.43490873    -0.78100
Zn865      Zn  0.55490174  0.27547449  0.47695016     1.55700
O866        O  0.92394993  0.23964745  0.43831223    -0.79500
Cd867      Cd  0.97248724  0.19490837  0.47344787     1.59700
Cd868      Cd  0.00259575  0.24922850  0.06169050     1.59600
O869        O  0.95031565  0.15865655  0.02878986    -0.79500
O870        O  0.50143906  0.24933161  0.49533231    -1.90000
Cd871      Cd  0.97394120  0.27670783  0.47442171     1.59900
O872        O  0.98198951  0.19463812  0.08707465    -0.79500
O873        O  0.51020269  0.32272834  0.43345836    -0.78100
C874        C  0.59073650  0.29576129  0.07058612     0.84400
C875        C  0.54411417  0.20516238  0.42494189     0.84100
O876        O  0.56486211  0.32118524  0.44000136    -0.77100
C877        C  0.90937182  0.20475545  0.42551190     0.84900
O878        O  0.59485639  0.29358474  0.02836591    -0.77200
C879        C  0.95697090  0.16256057  0.07107502     0.85000
C880        C  0.95422723  0.28878844  0.07160308     0.85300
O881        O  0.96717715  0.26810002  0.08719946    -0.79600
O882        O  0.56375643  0.32282851  0.31296848    -0.77100
C883        C  0.54494163  0.20737050  0.32555586     0.83900
O884        O  0.55783106  0.27402794  0.16433811    -0.78200
O885        O  0.95765222  0.16044531  0.22045331    -0.79700
O886        O  0.92643606  0.24085663  0.31697223    -0.79500
O887        O  0.50977872  0.32615512  0.31452017    -0.78100
Zn888      Zn  0.55569347  0.27870729  0.27417338     1.55700
O889        O  0.92388324  0.18423400  0.31109983    -0.79500
Cd890      Cd  0.97322826  0.27746322  0.27721640     1.59700
Cd891      Cd  0.50305608  0.25390550  0.18919632     1.59600
O892        O  0.94946075  0.28992941  0.22206256    -0.79500
O893        O  0.50222384  0.25205980  0.25548877    -1.90000
Cd894      Cd  0.97405878  0.19701563  0.27581688     1.59900
O895        O  0.98292114  0.28853655  0.16406419    -0.79500
O896        O  0.50929237  0.18604539  0.31693354    -0.78100
C897        C  0.59140894  0.29461220  0.17991895     0.84400
C898        C  0.54475604  0.33878412  0.32565385     0.84100
O899        O  0.56458585  0.24175047  0.31093454    -0.77100
C900        C  0.91012006  0.20493655  0.32504988     0.84900
O901        O  0.59589686  0.30054219  0.22225847    -0.77200
C902        C  0.95654441  0.29363992  0.17987346     0.85000
C903        C  0.95363570  0.16597648  0.17896078     0.85300
O904        O  0.96654783  0.19976370  0.16380530    -0.79600
C905        C  0.92974326  0.13170577  0.14971875     0.03700
C906        C  0.93207304  0.12960158  0.10175749     0.03600
C907        C  0.90450403  0.09568589  0.08018491    -0.16900
C908        C  0.87055015  0.06797833  0.10153223     0.03700
C909        C  0.86823916  0.07023441  0.14946054     0.03600
C910        C  0.89949881  0.10036681  0.17215598    -0.16900
H911        H  0.89755566  0.10216648  0.20835068     0.05700
H912        H  0.90722195  0.09308113  0.04431211     0.05700
C913        C  0.70232596  0.07018680  0.09939321     0.03700
C914        C  0.69779165  0.06801297  0.14732740     0.03600
C915        C  0.69160764  0.09579422  0.16861232    -0.16900
C916        C  0.69785999  0.12964580  0.14692700     0.03700
C917        C  0.70233551  0.13166959  0.09898811     0.03600
C918        C  0.70124753  0.10031662  0.07663083    -0.16900
H919        H  0.70500944  0.10210391  0.04043841     0.05700
H920        H  0.68633496  0.09326308  0.20449451     0.05700
C921        C  0.80941187  0.43503015  0.39627837     0.03700
C922        C  0.80554829  0.43303640  0.34905391     0.03600
C923        C  0.80620531  0.40312750  0.32581454    -0.16900
C924        C  0.80531874  0.37238935  0.34887288     0.03700
C925        C  0.80881326  0.37399493  0.39611203     0.03600
C926        C  0.81350585  0.40663927  0.41889877    -0.16900
H927        H  0.81340869  0.40652852  0.45540438     0.05700
H928        H  0.80147442  0.40082353  0.28971893     0.05700
O929        O  0.75640765  0.43506039  0.30890606    -0.77100
C930        C  0.66096466  0.45604442  0.32536943     0.83900
O931        O  0.72667259  0.44220441  0.16324471    -0.78200
O932        O  0.70886819  0.05014200  0.22040721    -0.79700
O933        O  0.81536619  0.07579125  0.31102834    -0.79500
O934        O  0.81229968  0.48997206  0.31600552    -0.78100
Zn935      Zn  0.72007071  0.44478893  0.27264582     1.55700
O936        O  0.75937009  0.07474800  0.31500482    -0.79500
Cd937      Cd  0.80215978  0.02582863  0.27510862     1.59700
Cd938      Cd  0.74593270  0.49699652  0.18793209     1.59600
O939        O  0.83896775  0.04236026  0.21995667    -0.79500
O940        O  0.74727342  0.49822762  0.25427890    -1.90000
Cd941      Cd  0.72204324  0.02740568  0.27605562     1.59900
O942        O  0.80012057  0.03353678  0.16276030    -0.79500
O943        O  0.67366602  0.49111116  0.31446856    -0.78100
C944        C  0.70496595  0.40882817  0.17884323     0.84400
C945        C  0.79063148  0.45426871  0.32400476     0.84100
O946        O  0.67659948  0.43697403  0.31197355    -0.77100
C947        C  0.79508999  0.09029118  0.32410164     0.84900
O948        O  0.69780502  0.40469229  0.22093525    -0.77200
C949        C  0.83376417  0.04639641  0.17835488     0.85000
C950        C  0.70541254  0.04289763  0.17822994     0.85300
O951        O  0.71119163  0.01689701  0.16253207    -0.79600
O952        O  0.67665521  0.23981960  0.31003510    -0.77100
C953        C  0.79065974  0.33637223  0.32353946     0.83900
O954        O  0.72718853  0.28432703  0.16201622    -0.78200
O955        O  0.83967709  0.29760761  0.21887298    -0.79700
O956        O  0.75966690  0.18458404  0.31379224    -0.79500
O957        O  0.67420992  0.18305469  0.31369973    -0.78100
Zn958      Zn  0.72066373  0.27541488  0.27158789     1.55700
O959        O  0.81575073  0.23950840  0.31011362    -0.79500
Cd960      Cd  0.72243487  0.19493908  0.27517388     1.59700
Cd961      Cd  0.74683723  0.24930195  0.18686398     1.59600
O962        O  0.70852409  0.15880754  0.21977758    -0.79500
O963        O  0.74798126  0.24932200  0.25325954    -1.90000
Cd964      Cd  0.80281472  0.27668137  0.27421480     1.59900
O965        O  0.71262798  0.19466553  0.16141515    -0.79500
O966        O  0.81249332  0.32252207  0.31542119    -0.78100
C967        C  0.70549080  0.29588763  0.17786145     0.84400
C968        C  0.66112380  0.20524835  0.32378648     0.84100
O969        O  0.75648331  0.32129752  0.30831581    -0.77100
C970        C  0.79536625  0.20465460  0.32303758     0.86300
O971        O  0.69868661  0.29310977  0.21998417    -0.77200
C972        C  0.70574855  0.16264198  0.17748344     0.85000
C973        C  0.83461904  0.28886671  0.17709229     0.85300
O974        O  0.80104244  0.26781937  0.16152684    -0.79600
O975        O  0.67889106  0.43506577  0.43964732    -0.77100
C976        C  0.79543735  0.45606157  0.42341551     0.83900
O977        O  0.71603528  0.44214388  0.08539911    -0.78200
O978        O  0.84155917  0.05008160  0.02848009    -0.79700
O979        O  0.76062083  0.07570424  0.43760897    -0.79500
O980        O  0.67773663  0.48991461  0.43300856    -0.78100
Zn981      Zn  0.72495652  0.44477770  0.47595969     1.55700
O982        O  0.81569250  0.07486574  0.43392392    -0.79500
Cd983      Cd  0.72390911  0.02578834  0.47368881     1.59700
Cd984      Cd  0.75138205  0.49694542  0.06084964     1.59600
O985        O  0.70378329  0.04238306  0.02889108    -0.79500
O986        O  0.75123091  0.49820462  0.49448021    -1.90000
Cd987      Cd  0.80567133  0.02743254  0.47278524     1.59900
O988        O  0.73357032  0.03330360  0.08614356    -0.79500
O989        O  0.81778412  0.49112875  0.43435917    -0.78100
C990        C  0.70417852  0.40877074  0.06971712     0.84400
C991        C  0.66377692  0.45425626  0.42478748     0.84100
O992        O  0.76070662  0.43698621  0.43673168    -0.77100
C993        C  0.79544639  0.09030921  0.42466564     0.84900
O994        O  0.70701080  0.40462905  0.02758674    -0.77200
C995        C  0.71291077  0.04629530  0.07052205     0.85000
C996        C  0.83777828  0.04287727  0.07066731     0.85300
O997        O  0.80598385  0.01693923  0.08639212    -0.79600
O998        O  0.75948733  0.32288118  0.43562602    -0.77100
C999        C  0.66249520  0.20747782  0.42324662     0.83900
O1000       O  0.71530685  0.27287401  0.08439273    -0.78200
O1001       O  0.70296378  0.16034122  0.02828189    -0.79700
O1002       O  0.81447549  0.24061764  0.43198084    -0.79500
O1003       O  0.81672748  0.32611429  0.43409546    -0.78100
Zn1004     Zn  0.72340041  0.27880215  0.47445710     1.55700
O1005       O  0.76015479  0.18413236  0.43716919    -0.79500
Cd1006     Cd  0.80432100  0.27734228  0.47150805     1.59700
Cd1007     Cd  0.75079287  0.25367635  0.05951611     1.59600
O1008       O  0.84031618  0.28974994  0.02680448    -0.79500
O1009       O  0.74993610  0.25194415  0.49317102    -1.90000
Cd1010     Cd  0.72293342  0.19689919  0.47286038     1.59900
O1011       O  0.80555027  0.28873746  0.08473584    -0.79500
O1012       O  0.67663293  0.18602170  0.43204126    -0.78100
C1013       C  0.70330663  0.29431735  0.06880747     0.84400
C1014       C  0.79443509  0.33880931  0.42294493     0.84100
O1015       O  0.67739794  0.24192870  0.43771246    -0.77100
C1016       C  0.79473009  0.20477416  0.42353146     0.84900
O1017       O  0.70554973  0.30089115  0.02656794    -0.77200
C1018       C  0.83698999  0.29364172  0.06895652     0.85000
C1019       C  0.71270751  0.16589176  0.06971843     0.85300
O1020       O  0.73372580  0.19966521  0.08482176    -0.79600
C1021       C  0.83289937  0.16667594  0.41819339     0.46900
H1022       H  0.83253134  0.16669771  0.45555618    -0.02200
C1023       C  0.83383191  0.16664300  0.33042644     0.46900
H1024       H  0.83420131  0.16662019  0.29306358    -0.02200
C1025       C  0.81285594  0.12598596  0.39739323    -0.15900
C1026       C  0.81259220  0.18678208  0.39672697    -0.15600
C1027       C  0.87383151  0.18722244  0.39792534    -0.16000
C1028       C  0.81332711  0.12597384  0.35131196    -0.16000
C1029       C  0.81332485  0.18707914  0.35065329    -0.15500
C1030       C  0.87425552  0.18691887  0.35185519    -0.15900
C1031       C  0.66710143  0.33309984  0.66782491     0.46900
H1032       H  0.66753050  0.33314576  0.70513216    -0.02200
C1033       C  0.66632600  0.33305484  0.58073852     0.46900
H1034       H  0.66596323  0.33306833  0.54343040    -0.02200
C1035       C  0.68750316  0.37421534  0.64778949    -0.15900
C1036       C  0.68761520  0.31271074  0.64719546    -0.15600
C1037       C  0.62577844  0.31231586  0.64841052    -0.16000
C1038       C  0.68706206  0.37418626  0.60075890    -0.16000
C1039       C  0.68681078  0.31224248  0.60018663    -0.15500
C1040       C  0.62541728  0.31268420  0.60135747    -0.15900
C1041       C  0.56532068  0.19104375  0.89847982     0.03700
C1042       C  0.56557037  0.19196539  0.85107282     0.03600
C1043       C  0.59416191  0.18889503  0.82766238    -0.16900
C1044       C  0.62580845  0.19116077  0.85029304     0.03700
C1045       C  0.62648265  0.19211289  0.89770398     0.03600
C1046       C  0.59477476  0.18891608  0.92111467    -0.16900
H1047       H  0.59623784  0.19136512  0.95751268     0.05700
H1048       H  0.59513716  0.19133316  0.79126386     0.05700
C1049       C  0.56721593  0.37242596  0.89972985     0.03700
C1050       C  0.56555296  0.37395618  0.85246794     0.03600
C1051       C  0.59356297  0.40655049  0.82971165    -0.16900
C1052       C  0.62593308  0.43498175  0.85242131     0.03700
C1053       C  0.62765363  0.43306769  0.89967026     0.03600
C1054       C  0.59698758  0.40320153  0.92285436    -0.16900
H1055       H  0.59929418  0.40093668  0.95897666     0.05700
H1056       H  0.59367257  0.40639092  0.79320497     0.05700
C1057       C  0.86998597  0.30125355  0.59955641     0.03700
C1058       C  0.86911465  0.30018167  0.64779722     0.03600
C1059       C  0.90183260  0.30475797  0.67065371    -0.16900
C1060       C  0.93121721  0.30126482  0.64920884     0.03700
C1061       C  0.93096259  0.30003168  0.60094602     0.03600
C1062       C  0.90278116  0.30456036  0.57808294    -0.16900
H1063       H  0.90385369  0.30562748  0.54171507     0.05700
H1064       H  0.90186908  0.30593967  0.70701904     0.05700
O1065       O  0.56320406  0.23972312  0.93872038    -0.77100
C1066       C  0.54582037  0.33641120  0.92505097     0.83900
O1067       O  0.55737895  0.28349680  0.58644886    -0.78200
O1068       O  0.95761567  0.29727572  0.52975660    -0.79700
O1069       O  0.92488501  0.18460061  0.93487894    -0.79500
O1070       O  0.50879937  0.18302565  0.93490841    -0.78100
Zn1071     Zn  0.55490187  0.27547551  0.97695001     1.55700
O1072       O  0.92394979  0.23964758  0.93831223    -0.79500
Cd1073     Cd  0.97248748  0.19490879  0.97344788     1.59700
Cd1074     Cd  0.00259564  0.24922810  0.56169052     1.59600
O1075       O  0.95031541  0.15865648  0.52879000    -0.79500
O1076       O  0.50143914  0.24933222  0.99533222    -1.90000
Cd1077     Cd  0.97394092  0.27670815  0.97442179     1.59900
O1078       O  0.98199060  0.19463770  0.58707454    -0.79500
O1079       O  0.51020201  0.32272893  0.93345861    -0.78100
C1080       C  0.59073617  0.29576118  0.57058639     0.84400
C1081       C  0.54411481  0.20516360  0.92494162     0.84100
O1082       O  0.56486153  0.32118596  0.94000111    -0.77100
C1083       C  0.90937194  0.20475566  0.92551171     0.84900
O1084       O  0.59485586  0.29358314  0.52836641    -0.77200
C1085       C  0.95697131  0.16256034  0.57107504     0.85000
C1086       C  0.95422692  0.28878768  0.57160273     0.85300
O1087       O  0.96717595  0.26809847  0.58719906    -0.79600
O1088       O  0.56375596  0.32282925  0.81296832    -0.77100
C1089       C  0.54494224  0.20737171  0.82555556     0.83900
O1090       O  0.55783096  0.27402663  0.66433795    -0.78200
O1091       O  0.95765280  0.16044550  0.72045305    -0.79700
O1092       O  0.92643599  0.24085660  0.81697197    -0.79500
O1093       O  0.50977813  0.32615559  0.81451967    -0.78100
Zn1094     Zn  0.55569327  0.27870824  0.77417327     1.55700
O1095       O  0.92388343  0.18423406  0.81109964    -0.79500
Cd1096     Cd  0.97322791  0.27746317  0.77721599     1.59700
Cd1097     Cd  0.50305609  0.25390560  0.68919596     1.59600
O1098       O  0.94946043  0.28992890  0.72206182    -0.79500
O1099       O  0.50222379  0.25206037  0.75548851    -1.90000
Cd1100     Cd  0.97405895  0.19701583  0.77581656     1.59900
O1101       O  0.98292128  0.28853660  0.66406354    -0.79500
O1102       O  0.50929302  0.18604640  0.81693317    -0.78100
C1103       C  0.59140864  0.29461221  0.67991881     0.84400
C1104       C  0.54475542  0.33878470  0.82565359     0.84100
O1105       O  0.56458625  0.24175172  0.81093432    -0.77100
C1106       C  0.91012016  0.20493655  0.82504968     0.84900
O1107       O  0.59589631  0.30054342  0.72225815    -0.77200
C1108       C  0.95654427  0.29363960  0.67987276     0.85000
C1109       C  0.95363594  0.16597649  0.67896056     0.85300
O1110       O  0.96654755  0.19976360  0.66380495    -0.79600
C1111       C  0.92974369  0.13170566  0.64971876     0.03700
C1112       C  0.93207347  0.12960138  0.60175756     0.03600
C1113       C  0.90450447  0.09568564  0.58018508    -0.16900
C1114       C  0.87055055  0.06797818  0.60153247     0.03700
C1115       C  0.86823961  0.07023435  0.64946079     0.03600
C1116       C  0.89949932  0.10036675  0.67215614    -0.16900
H1117       H  0.89755625  0.10216654  0.70835083     0.05700
H1118       H  0.90722241  0.09308081  0.54431230     0.05700
C1119       C  0.70232647  0.07018704  0.59939345     0.03700
C1120       C  0.69779220  0.06801324  0.64732764     0.03600
C1121       C  0.69160829  0.09579454  0.66861261    -0.16900
C1122       C  0.69786043  0.12964602  0.64692723     0.03700
C1123       C  0.70233591  0.13166980  0.59898836     0.03600
C1124       C  0.70124815  0.10031692  0.57663109    -0.16900
H1125       H  0.70501023  0.10210430  0.54043869     0.05700
H1126       H  0.68633576  0.09326346  0.70449482     0.05700
C1127       C  0.80941183  0.43503023  0.89627854     0.03700
C1128       C  0.80554840  0.43303656  0.84905407     0.03600
C1129       C  0.80620576  0.40312788  0.82581462    -0.16900
C1130       C  0.80531926  0.37238971  0.84887288     0.03700
C1131       C  0.80881364  0.37399521  0.89611208     0.03600
C1132       C  0.81350593  0.40663942  0.91889887    -0.16900
H1133       H  0.81340866  0.40652861  0.95540453     0.05700
H1134       H  0.80147502  0.40082401  0.78971897     0.05700
O1135       O  0.75640759  0.43506045  0.80890644    -0.77100
C1136       C  0.66096437  0.45604442  0.82536934     0.83900
O1137       O  0.72667225  0.44220441  0.66324480    -0.78200
O1138       O  0.70886856  0.05014209  0.72040741    -0.79700
O1139       O  0.81536627  0.07579117  0.81102873    -0.79500
O1140       O  0.81229969  0.48997213  0.81600552    -0.78100
Zn1141     Zn  0.72007064  0.44478888  0.77264598     1.55700
O1142       O  0.75937026  0.07474811  0.81500481    -0.79500
Cd1143     Cd  0.80216004  0.02582858  0.77510895     1.59700
Cd1144     Cd  0.74593265  0.49699658  0.68793216     1.59600
O1145       O  0.83896813  0.04236056  0.71995704    -0.79500
O1146       O  0.74727331  0.49822759  0.75427897    -1.90000
Cd1147     Cd  0.72204356  0.02740573  0.77605582     1.59900
O1148       O  0.80012103  0.03353668  0.66276045    -0.79500
O1149       O  0.67366587  0.49111118  0.81446851    -0.78100
C1150       C  0.70496581  0.40882814  0.67884337     0.84400
C1151       C  0.79063150  0.45426880  0.82400495     0.84100
O1152       O  0.67659916  0.43697394  0.81197359    -0.77100
C1153       C  0.79509011  0.09029125  0.82410172     0.84900
O1154       O  0.69780511  0.40469222  0.72093544    -0.77200
C1155       C  0.83376460  0.04639650  0.67835517     0.85000
C1156       C  0.70541308  0.04289789  0.67823011     0.85300
O1157       O  0.71119232  0.01689741  0.66253214    -0.79600
O1158       O  0.67665564  0.23982010  0.81003480    -0.77100
C1159       C  0.79066023  0.33637262  0.82353933     0.83900
O1160       O  0.72718842  0.28432711  0.66201603    -0.78200
O1161       O  0.83967717  0.29760777  0.71887227    -0.79700
O1162       O  0.75966731  0.18458471  0.81379230    -0.79500
O1163       O  0.67421026  0.18305516  0.81369974    -0.78100
Zn1164     Zn  0.72066408  0.27541531  0.77158768     1.55700
O1165       O  0.81575134  0.23950879  0.81011293    -0.79500
Cd1166     Cd  0.72243518  0.19493954  0.77517388     1.59700
Cd1167     Cd  0.74683727  0.24930210  0.68686369     1.59600
O1168       O  0.70852461  0.15880793  0.71977769    -0.79500
O1169       O  0.74798150  0.24932236  0.75325924    -1.90000
Cd1170     Cd  0.80281505  0.27668174  0.77421428     1.59900
O1171       O  0.71262785  0.19466559  0.66141517    -0.79500
O1172       O  0.81249382  0.32252249  0.81542081    -0.78100
C1173       C  0.70549070  0.29588769  0.67786137     0.84400
C1174       C  0.66112420  0.20524890  0.82378632     0.84100
O1175       O  0.75648378  0.32129792  0.80831574    -0.77100
C1176       C  0.79536675  0.20465510  0.82303728     0.86300
O1177       O  0.69868671  0.29310998  0.71998411    -0.77200
C1178       C  0.70574883  0.16264219  0.67748356     0.85000
C1179       C  0.83461900  0.28886666  0.67709165     0.85300
O1180       O  0.80104236  0.26781933  0.66152632    -0.79600
O1181       O  0.67889057  0.43506572  0.93964710    -0.77100
C1182       C  0.79543721  0.45606164  0.92341558     0.83900
O1183       O  0.71603507  0.44214390  0.58539926    -0.78200
O1184       O  0.84155955  0.05008174  0.52848036    -0.79700
O1185       O  0.76062071  0.07570436  0.93760886    -0.79500
O1186       O  0.67773654  0.48991475  0.93300829    -0.78100
Zn1187     Zn  0.72495617  0.44477772  0.97595953     1.55700
O1188       O  0.81569233  0.07486579  0.93392385    -0.79500
Cd1189     Cd  0.72390886  0.02578827  0.97368854     1.59700
Cd1190     Cd  0.75138204  0.49694537  0.56084979     1.59600
O1191       O  0.70378362  0.04238315  0.52889140    -0.79500
O1192       O  0.75123083  0.49820465  0.99448004    -1.90000
Cd1193     Cd  0.80567095  0.02743245  0.97278500     1.59900
O1194       O  0.73357100  0.03330399  0.58614371    -0.79500
O1195       O  0.81778401  0.49112878  0.93435935    -0.78100
C1196       C  0.70417841  0.40877077  0.56971729     0.84400
C1197       C  0.66377659  0.45425635  0.92478726     0.84100
O1198       O  0.76070638  0.43698634  0.93673148    -0.77100
C1199       C  0.79544629  0.09030934  0.92466559     0.84900
O1200       O  0.70701091  0.40462910  0.52758695    -0.77200
C1201       C  0.71291126  0.04629552  0.57052232     0.85000
C1202       C  0.83777866  0.04287720  0.57066753     0.85300
O1203       O  0.80598423  0.01693901  0.58639224    -0.79600
O1204       O  0.75948776  0.32288143  0.93562609    -0.77100
C1205       C  0.66249552  0.20747829  0.92324645     0.83900
O1206       O  0.71530655  0.27287392  0.58439263    -0.78200
O1207       O  0.70296359  0.16034123  0.52828228    -0.79700
O1208       O  0.81447602  0.24061785  0.93198111    -0.79500
O1209       O  0.81672791  0.32611455  0.93409550    -0.78100
Zn1210     Zn  0.72340078  0.27880235  0.97445711     1.55700
O1211       O  0.76015507  0.18413267  0.93716871    -0.79500
Cd1212     Cd  0.80432137  0.27734249  0.97150821     1.59700
Cd1213     Cd  0.75079278  0.25367646  0.55951609     1.59600
O1214       O  0.84031583  0.28974952  0.52680409    -0.79500
O1215       O  0.74993637  0.25194424  0.99317099    -1.90000
Cd1216     Cd  0.72293371  0.19689934  0.97286007     1.59900
O1217       O  0.80555032  0.28873785  0.58473545    -0.79500
O1218       O  0.67663322  0.18602211  0.93204094    -0.78100
C1219       C  0.70330625  0.29431723  0.56880741     0.84400
C1220       C  0.79443551  0.33880957  0.92294495     0.84100
O1221       O  0.67739826  0.24192911  0.93771247    -0.77100
C1222       C  0.79473047  0.20477445  0.92353129     0.84900
O1223       O  0.70554929  0.30089099  0.52656788    -0.77200
C1224       C  0.83698983  0.29364156  0.56895608     0.85000
C1225       C  0.71270762  0.16589190  0.56971871     0.85300
O1226       O  0.73372598  0.19966540  0.58482190    -0.79600
C1227       C  0.83289953  0.16667612  0.91819318     0.46900
H1228       H  0.83253151  0.16669794  0.95555597    -0.02200
C1229       C  0.83383206  0.16664312  0.83042624     0.46900
H1230       H  0.83420144  0.16662026  0.79306337    -0.02200
C1231       C  0.81285594  0.12598612  0.89739311    -0.15900
C1232       C  0.81259253  0.18678239  0.89672673    -0.15600
C1233       C  0.87383165  0.18722252  0.89792512    -0.16000
C1234       C  0.81332717  0.12597397  0.85131186    -0.16000
C1235       C  0.81332519  0.18707948  0.85065303    -0.15500
C1236       C  0.87425566  0.18691886  0.85185498    -0.15900
C1237       C  0.66710161  0.83309980  0.16782494     0.46900
H1238       H  0.66753072  0.83314579  0.20513218    -0.02200
C1239       C  0.66632618  0.83305472  0.08073855     0.46900
H1240       H  0.66596342  0.83306812  0.04343043    -0.02200
C1241       C  0.68750325  0.87421528  0.14778943    -0.15900
C1242       C  0.68761538  0.81271068  0.14719557    -0.15600
C1243       C  0.62577863  0.81231573  0.14841060    -0.16000
C1244       C  0.68706216  0.87418617  0.10075884    -0.16000
C1245       C  0.68681100  0.81224244  0.10018674    -0.15500
C1246       C  0.62541747  0.81268403  0.10135748    -0.15900
C1247       C  0.56532020  0.69104287  0.39848011     0.03700
C1248       C  0.56556978  0.69196432  0.35107310     0.03600
C1249       C  0.59416134  0.68889397  0.32766266    -0.16900
C1250       C  0.62580806  0.69116008  0.35029327     0.03700
C1251       C  0.62648236  0.69211235  0.39770420     0.03600
C1252       C  0.59477445  0.68891548  0.42111494    -0.16900
H1253       H  0.59623761  0.69136467  0.45751293     0.05700
H1254       H  0.59513652  0.69133194  0.29126414     0.05700
C1255       C  0.56721658  0.87242553  0.39973008     0.03700
C1256       C  0.56555347  0.87395583  0.35246822     0.03600
C1257       C  0.59356323  0.90655031  0.32971194    -0.16900
C1258       C  0.62593330  0.93498169  0.35242156     0.03700
C1259       C  0.62765394  0.93306756  0.39967054     0.03600
C1260       C  0.59698805  0.90320118  0.42285463    -0.16900
H1261       H  0.59929463  0.90093626  0.45897695     0.05700
H1262       H  0.59367269  0.90639081  0.29320526     0.05700
C1263       C  0.86998602  0.80125368  0.09955701     0.03700
C1264       C  0.86911462  0.80018165  0.14779785     0.03600
C1265       C  0.90183256  0.80475795  0.17065436    -0.16900
C1266       C  0.93121724  0.80126488  0.14920948     0.03700
C1267       C  0.93096278  0.80003206  0.10094659     0.03600
C1268       C  0.90278138  0.80456088  0.07808359    -0.16900
H1269       H  0.90385404  0.80562842  0.04171574     0.05700
H1270       H  0.90186895  0.80593951  0.20701969     0.05700
O1271       O  0.56320358  0.73972224  0.43872058    -0.77100
C1272       C  0.54582090  0.83641075  0.42505112     0.83900
O1273       O  0.55737911  0.78349559  0.08644883    -0.78200
O1274       O  0.95761510  0.79727557  0.02975673    -0.79700
O1275       O  0.92488480  0.68460041  0.43487930    -0.79500
O1276       O  0.50879886  0.68302483  0.43490872    -0.78100
Zn1277     Zn  0.55490160  0.77547468  0.47695010     1.55700
O1278       O  0.92394991  0.73964755  0.43831222    -0.79500
Cd1279     Cd  0.97248727  0.69490852  0.47344811     1.59700
Cd1280     Cd  0.00259572  0.74922843  0.06169051     1.59600
O1281       O  0.95031576  0.65865651  0.02878966    -0.79500
O1282       O  0.50143900  0.74933171  0.49533233    -1.90000
Cd1283     Cd  0.97394116  0.77670791  0.47442175     1.59900
O1284       O  0.98198968  0.69463803  0.08707446    -0.79500
O1285       O  0.51020253  0.82272856  0.43345857    -0.78100
C1286       C  0.59073643  0.79576114  0.07058625     0.84400
C1287       C  0.54411430  0.70516273  0.42494187     0.84100
O1288       O  0.56486190  0.82118538  0.44000133    -0.77100
C1289       C  0.90937186  0.70475555  0.42551192     0.84900
O1290       O  0.59485628  0.79358437  0.02836606    -0.77200
C1291       C  0.95697110  0.66256048  0.07107481     0.85000
C1292       C  0.95422718  0.78878823  0.07160307     0.85300
O1293       O  0.96717705  0.76809979  0.08719945    -0.79600
O1294       O  0.56375631  0.82282881  0.31296859    -0.77100
C1295       C  0.54494184  0.70737082  0.32555586     0.83900
O1296       O  0.55783108  0.77402771  0.16433830    -0.78200
O1297       O  0.95765240  0.66044523  0.22045318    -0.79700
O1298       O  0.92643622  0.74085654  0.31697254    -0.79500
O1299       O  0.50977856  0.82615534  0.31452017    -0.78100
Zn1300     Zn  0.55569352  0.77870765  0.27417359     1.55700
O1301       O  0.92388318  0.68423382  0.31109968    -0.79500
Cd1302     Cd  0.97322822  0.77746309  0.27721644     1.59700
Cd1303     Cd  0.50305610  0.75390564  0.18919633     1.59600
O1304       O  0.94946052  0.78992900  0.22206256    -0.79500
O1305       O  0.50222391  0.75206006  0.25548882    -1.90000
Cd1306     Cd  0.97405875  0.69701550  0.27581680     1.59900
O1307       O  0.98292096  0.78853617  0.16406421    -0.79500
O1308       O  0.50929260  0.68604567  0.31693349    -0.78100
C1309       C  0.59140892  0.79461223  0.17991912     0.84400
C1310       C  0.54475587  0.83878437  0.32565391     0.84100
O1311       O  0.56458604  0.74175083  0.31093466    -0.77100
C1312       C  0.91012012  0.70493642  0.32504995     0.84900
O1313       O  0.59589681  0.80054257  0.22225860    -0.77200
C1314       C  0.95654419  0.79363949  0.17987346     0.85000
C1315       C  0.95363593  0.66597638  0.17896062     0.85300
O1316       O  0.96654799  0.69976359  0.16380514    -0.79600
C1317       C  0.92974361  0.63170564  0.14971857     0.03700
C1318       C  0.93207333  0.62960146  0.10175731     0.03600
C1319       C  0.90450426  0.59568578  0.08018478    -0.16900
C1320       C  0.87055037  0.56797826  0.10153219     0.03700
C1321       C  0.86823943  0.57023436  0.14946048     0.03600
C1322       C  0.89949917  0.60036671  0.17215589    -0.16900
H1323       H  0.89755606  0.60216641  0.20835054     0.05700
H1324       H  0.90722211  0.59308104  0.04431197     0.05700
C1325       C  0.70232613  0.57018681  0.09939327     0.03700
C1326       C  0.69779180  0.56801293  0.14732746     0.03600
C1327       C  0.69160772  0.59579412  0.16861247    -0.16900
C1328       C  0.69785991  0.62964566  0.14692719     0.03700
C1329       C  0.70233547  0.63166951  0.09898832     0.03600
C1330       C  0.70124772  0.60031667  0.07663097    -0.16900
H1331       H  0.70500981  0.60210408  0.04043857     0.05700
H1332       H  0.68633513  0.59326300  0.20449468     0.05700
C1333       C  0.80941185  0.93503023  0.39627822     0.03700
C1334       C  0.80554818  0.93303640  0.34905380     0.03600
C1335       C  0.80620517  0.90312747  0.32581446    -0.16900
C1336       C  0.80531864  0.87238936  0.34887288     0.03700
C1337       C  0.80881329  0.87399503  0.39611200     0.03600
C1338       C  0.81350586  0.90663938  0.41889868    -0.16900
H1339       H  0.81340878  0.90652874  0.45540428     0.05700
H1340       H  0.80147422  0.90082342  0.28971891     0.05700
O1341       O  0.75640747  0.93506038  0.30890607    -0.77100
C1342       C  0.66096451  0.95604451  0.32536944     0.83900
O1343       O  0.72667235  0.94220434  0.16324467    -0.78200
O1344       O  0.70886829  0.55014194  0.22040720    -0.79700
O1345       O  0.81536615  0.57579108  0.31102866    -0.79500
O1346       O  0.81229949  0.98997208  0.31600548    -0.78100
Zn1347     Zn  0.72007065  0.94478904  0.27264583     1.55700
O1348       O  0.75937015  0.57474808  0.31500477    -0.79500
Cd1349     Cd  0.80215994  0.52582858  0.27510865     1.59700
Cd1350     Cd  0.74593248  0.99699644  0.18793208     1.59600
O1351       O  0.83896796  0.54236041  0.21995665    -0.79500
O1352       O  0.74727330  0.99822765  0.25427886    -1.90000
Cd1353     Cd  0.72204336  0.52740573  0.27605563     1.59900
O1354       O  0.80012082  0.53353674  0.16276020    -0.79500
O1355       O  0.67366582  0.99111121  0.31446846    -0.78100
C1356       C  0.70496581  0.90882811  0.17884326     0.84400
C1357       C  0.79063133  0.95426871  0.32400469     0.84100
O1358       O  0.67659938  0.93697414  0.31197362    -0.77100
C1359       C  0.79508999  0.59029113  0.32410177     0.84900
O1360       O  0.69780498  0.90469229  0.22093531    -0.77200
C1361       C  0.83376441  0.54639646  0.17835484     0.85000
C1362       C  0.70541278  0.54289765  0.17822993     0.85300
O1363       O  0.71119205  0.51689717  0.16253201    -0.79600
O1364       O  0.67665511  0.73981952  0.31003487    -0.77100
C1365       C  0.79065968  0.83637223  0.32353948     0.83900
O1366       O  0.72718838  0.78432684  0.16201631    -0.78200
O1367       O  0.83967701  0.79760753  0.21887292    -0.79700
O1368       O  0.75966710  0.68458410  0.31379231    -0.79500
O1369       O  0.67420997  0.68305469  0.31369983    -0.78100
Zn1370     Zn  0.72066366  0.77541479  0.27158789     1.55700
O1371       O  0.81575093  0.73950846  0.31011341    -0.79500
Cd1372     Cd  0.72243498  0.69493906  0.27517407     1.59700
Cd1373     Cd  0.74683706  0.74930171  0.18686402     1.59600
O1374       O  0.70852410  0.65880750  0.21977777    -0.79500
O1375       O  0.74798124  0.74932194  0.25325959    -1.90000
Cd1376     Cd  0.80281475  0.77668146  0.27421479     1.59900
O1377       O  0.71262777  0.69466534  0.16141526    -0.79500
O1378       O  0.81249335  0.82252217  0.31542115    -0.78100
C1379       C  0.70549069  0.79588749  0.17786156     0.84400
C1380       C  0.66112378  0.70524833  0.32378641     0.84100
O1381       O  0.75648324  0.82129743  0.30831585    -0.77100
C1382       C  0.79536647  0.70465469  0.32303751     0.86300
O1383       O  0.69868653  0.79310966  0.21998426    -0.77200
C1384       C  0.70574844  0.66264184  0.17748362     0.85000
C1385       C  0.83461891  0.78886651  0.17709226     0.85300
O1386       O  0.80104228  0.76781920  0.16152684    -0.79600
O1387       O  0.67889095  0.93506578  0.43964731    -0.77100
C1388       C  0.79543734  0.95606171  0.42341532     0.83900
O1389       O  0.71603524  0.94214380  0.08539916    -0.78200
O1390       O  0.84155935  0.55008168  0.02848011    -0.79700
O1391       O  0.76062083  0.57570432  0.43760922    -0.79500
O1392       O  0.67773667  0.98991469  0.43300859    -0.78100
Zn1393     Zn  0.72495653  0.94477777  0.47595962     1.55700
O1394       O  0.81569238  0.57486559  0.43392386    -0.79500
Cd1395     Cd  0.72390900  0.52578828  0.47368883     1.59700
Cd1396     Cd  0.75138190  0.99694534  0.06084965     1.59600
O1397       O  0.70378343  0.54238304  0.02889111    -0.79500
O1398       O  0.75123102  0.99820468  0.49448020    -1.90000
Cd1399     Cd  0.80567123  0.52743242  0.47278524     1.59900
O1400       O  0.73357064  0.53330378  0.08614355    -0.79500
O1401       O  0.81778416  0.99112885  0.43435910    -0.78100
C1402       C  0.70417836  0.90877065  0.06971718     0.84400
C1403       C  0.66377686  0.95425633  0.42478751     0.84100
O1404       O  0.76070659  0.93698638  0.43673142    -0.77100
C1405       C  0.79544634  0.59030918  0.42466574     0.84900
O1406       O  0.70701055  0.90462895  0.02758679    -0.77200
C1407       C  0.71291098  0.54629535  0.07052207     0.85000
C1408       C  0.83777847  0.54287723  0.07066729     0.85300
O1409       O  0.80598403  0.51693913  0.08639204    -0.79600
O1410       O  0.75948745  0.82288124  0.43562609    -0.77100
C1411       C  0.66249531  0.70747796  0.42324654     0.83900
O1412       O  0.71530673  0.77287385  0.08439281    -0.78200
O1413       O  0.70296370  0.66034119  0.02828222    -0.79700
O1414       O  0.81447562  0.74061767  0.43198104    -0.79500
O1415       O  0.81672763  0.82611444  0.43409544    -0.78100
Zn1416     Zn  0.72340038  0.77880214  0.47445704     1.55700
O1417       O  0.76015484  0.68413239  0.43716901    -0.79500
Cd1418     Cd  0.80432108  0.77734241  0.47150809     1.59700
Cd1419     Cd  0.75079278  0.75367625  0.05951618     1.59600
O1420       O  0.84031593  0.78974956  0.02680449    -0.79500
O1421       O  0.74993618  0.75194425  0.49317104    -1.90000
Cd1422     Cd  0.72293364  0.69689930  0.47286035     1.59900
O1423       O  0.80555024  0.78873757  0.08473582    -0.79500
O1424       O  0.67663308  0.68602188  0.43204126    -0.78100
C1425       C  0.70330652  0.79431722  0.06880757     0.84400
C1426       C  0.79443520  0.83880943  0.42294496     0.84100
O1427       O  0.67739802  0.74192884  0.43771229    -0.77100
C1428       C  0.79473020  0.70477421  0.42353146     0.84900
O1429       O  0.70554964  0.80089104  0.02656803    -0.77200
C1430       C  0.83698985  0.79364151  0.06895652     0.85000
C1431       C  0.71270744  0.66589172  0.06971874     0.85300
O1432       O  0.73372576  0.69966516  0.08482207    -0.79600
C1433       C  0.83289941  0.66667593  0.41819341     0.46900
H1434       H  0.83253137  0.66669773  0.45555620    -0.02200
C1435       C  0.83383198  0.66664295  0.33042647     0.46900
H1436       H  0.83420132  0.66662010  0.29306360    -0.02200
C1437       C  0.81285592  0.62598594  0.39739330    -0.15900
C1438       C  0.81259235  0.68678216  0.39672696    -0.15600
C1439       C  0.87383156  0.68722242  0.39792536    -0.16000
C1440       C  0.81332710  0.62597380  0.35131204    -0.16000
C1441       C  0.81332503  0.68707922  0.35065327    -0.15500
C1442       C  0.87425558  0.68691874  0.35185523    -0.15900
C1443       C  0.66710140  0.83309986  0.66782473     0.46900
H1444       H  0.66753043  0.83314573  0.70513197    -0.02200
C1445       C  0.66632604  0.83305490  0.58073835     0.46900
H1446       H  0.66596329  0.83306839  0.54343022    -0.02200
C1447       C  0.68750313  0.87421537  0.64778934    -0.15900
C1448       C  0.68761523  0.81271081  0.64719533    -0.15600
C1449       C  0.62577843  0.81231583  0.64841029    -0.16000
C1450       C  0.68706209  0.87418632  0.60075876    -0.16000
C1451       C  0.68681084  0.81224257  0.60018651    -0.15500
C1452       C  0.62541728  0.81268420  0.60135723    -0.15900
C1453       C  0.56532045  0.69104336  0.89847981     0.03700
C1454       C  0.56557015  0.69196497  0.85107279     0.03600
C1455       C  0.59416178  0.68889473  0.82766239    -0.16900
C1456       C  0.62580844  0.69116078  0.85029305     0.03700
C1457       C  0.62648258  0.69211281  0.89770400     0.03600
C1458       C  0.59477461  0.68891585  0.92111467    -0.16900
H1459       H  0.59623767  0.69136488  0.95751269     0.05700
H1460       H  0.59513700  0.69133279  0.79126387     0.05700
C1461       C  0.56721620  0.87242572  0.89972969     0.03700
C1462       C  0.56555321  0.87395595  0.85246778     0.03600
C1463       C  0.59356324  0.90655025  0.82971151    -0.16900
C1464       C  0.62593331  0.93498155  0.85242116     0.03700
C1465       C  0.62765379  0.93306753  0.89967015     0.03600
C1466       C  0.59698774  0.90320134  0.92285422    -0.16900
H1467       H  0.59929424  0.90093650  0.95897657     0.05700
H1468       H  0.59367284  0.90639069  0.79320479     0.05700
C1469       C  0.86998615  0.80125382  0.59955650     0.03700
C1470       C  0.86911486  0.80018202  0.64779732     0.03600
C1471       C  0.90183286  0.80475844  0.67065381    -0.16900
C1472       C  0.93121744  0.80126524  0.64920893     0.03700
C1473       C  0.93096279  0.80003205  0.60094610     0.03600
C1474       C  0.90278138  0.80456077  0.57808304    -0.16900
H1475       H  0.90385391  0.80562794  0.54171518     0.05700
H1476       H  0.90186934  0.80594018  0.70701913     0.05700
O1477       O  0.56320384  0.73972271  0.93872038    -0.77100
C1478       C  0.54582062  0.83641096  0.92505079     0.83900
O1479       O  0.55737894  0.78349661  0.58644869    -0.78200
O1480       O  0.95761555  0.79727571  0.52975660    -0.79700
O1481       O  0.92488492  0.68460056  0.93487902    -0.79500
O1482       O  0.50879912  0.68302526  0.93490843    -0.78100
Zn1483     Zn  0.55490187  0.77547526  0.97695002     1.55700
O1484       O  0.92394999  0.73964768  0.93831196    -0.79500
Cd1485     Cd  0.97248750  0.69490888  0.97344783     1.59700
Cd1486     Cd  0.00259563  0.74922822  0.56169062     1.59600
O1487       O  0.95031538  0.65865665  0.52879020    -0.79500
O1488       O  0.50143912  0.74933205  0.99533221    -1.90000
Cd1489     Cd  0.97394103  0.77670810  0.97442174     1.59900
O1490       O  0.98199055  0.69463782  0.58707474    -0.79500
O1491       O  0.51020225  0.82272868  0.93345835    -0.78100
C1492       C  0.59073616  0.79576122  0.57058613     0.84400
C1493       C  0.54411457  0.70516320  0.92494161     0.84100
O1494       O  0.56486176  0.82118576  0.94000106    -0.77100
C1495       C  0.90937197  0.70475569  0.92551164     0.84900
O1496       O  0.59485584  0.79358341  0.52836610    -0.77200
C1497       C  0.95697121  0.66256049  0.57107525     0.85000
C1498       C  0.95422701  0.78878789  0.57160281     0.85300
O1499       O  0.96717615  0.76809880  0.58719923    -0.79600
O1500       O  0.56375605  0.82282889  0.81296828    -0.77100
C1501       C  0.54494212  0.70737136  0.82555547     0.83900
O1502       O  0.55783091  0.77402673  0.66433785    -0.78200
O1503       O  0.95765256  0.66044564  0.72045307    -0.79700
O1504       O  0.92643593  0.74085677  0.81697189    -0.79500
O1505       O  0.50977832  0.82615543  0.81451959    -0.78100
Zn1506     Zn  0.55569329  0.77870787  0.77417306     1.55700
O1507       O  0.92388341  0.68423426  0.81109970    -0.79500
Cd1508     Cd  0.97322797  0.77746343  0.77721605     1.59700
Cd1509     Cd  0.50305600  0.75390545  0.68919597     1.59600
O1510       O  0.94946050  0.78992917  0.72206189    -0.79500
O1511       O  0.50222373  0.75206003  0.75548848    -1.90000
Cd1512     Cd  0.97405885  0.69701597  0.77581659     1.59900
O1513       O  0.98292139  0.78853683  0.66406366    -0.79500
O1514       O  0.50929286  0.68604615  0.81693323    -0.78100
C1515       C  0.59140864  0.79461216  0.67991865     0.84400
C1516       C  0.54475560  0.83878446  0.82565349     0.84100
O1517       O  0.56458627  0.74175130  0.81093403    -0.77100
C1518       C  0.91012012  0.70493673  0.82504967     0.84900
O1519       O  0.59589637  0.80054321  0.72225800    -0.77200
C1520       C  0.95654440  0.79363989  0.67987285     0.85000
C1521       C  0.95363565  0.66597664  0.67896062     0.85300
O1522       O  0.96654735  0.69976376  0.66380501    -0.79600
C1523       C  0.92974331  0.63170582  0.64971885     0.03700
C1524       C  0.93207322  0.62960154  0.60175770     0.03600
C1525       C  0.90450425  0.59568581  0.58018516    -0.16900
C1526       C  0.87055035  0.56797826  0.60153249     0.03700
C1527       C  0.86823933  0.57023439  0.64946079     0.03600
C1528       C  0.89949891  0.60036690  0.67215621    -0.16900
H1529       H  0.89755575  0.60216674  0.70835084     0.05700
H1530       H  0.90722225  0.59308103  0.54431238     0.05700
C1531       C  0.70232640  0.57018708  0.59939345     0.03700
C1532       C  0.69779210  0.56801327  0.64732763     0.03600
C1533       C  0.69160821  0.59579460  0.66861262    -0.16900
C1534       C  0.69786045  0.62964611  0.64692724     0.03700
C1535       C  0.70233597  0.63166988  0.59898838     0.03600
C1536       C  0.70124806  0.60031694  0.57663110    -0.16900
H1537       H  0.70501002  0.60210426  0.54043868     0.05700
H1538       H  0.68633566  0.59326353  0.70449483     0.05700
C1539       C  0.80941185  0.93503012  0.89627863     0.03700
C1540       C  0.80554856  0.93303654  0.84905416     0.03600
C1541       C  0.80620591  0.90312787  0.82581471    -0.16900
C1542       C  0.80531918  0.87238963  0.84887301     0.03700
C1543       C  0.80881348  0.87399505  0.89611219     0.03600
C1544       C  0.81350582  0.90663925  0.91889902    -0.16900
H1545       H  0.81340849  0.90652842  0.95540462     0.05700
H1546       H  0.80147527  0.90082406  0.78971906     0.05700
O1547       O  0.75640785  0.93506053  0.80890643    -0.77100
C1548       C  0.66096461  0.95604440  0.82536920     0.83900
O1549       O  0.72667239  0.94220441  0.66324470    -0.78200
O1550       O  0.70886854  0.55014218  0.72040737    -0.79700
O1551       O  0.81536620  0.57579127  0.81102840    -0.79500
O1552       O  0.81229995  0.98997216  0.81600577    -0.78100
Zn1553     Zn  0.72007090  0.94478894  0.77264590     1.55700
O1554       O  0.75937012  0.57474804  0.81500494    -0.79500
Cd1555     Cd  0.80215981  0.52582863  0.77510874     1.59700
Cd1556     Cd  0.74593286  0.99699654  0.68793217     1.59600
O1557       O  0.83896784  0.54236045  0.71995693    -0.79500
O1558       O  0.74727356  0.99822760  0.75427899    -1.90000
Cd1559     Cd  0.72204332  0.52740569  0.77605583     1.59900
O1560       O  0.80012077  0.53353679  0.66276042    -0.79500
O1561       O  0.67366609  0.99111121  0.81446855    -0.78100
C1562       C  0.70496590  0.90882815  0.67884326     0.84400
C1563       C  0.79063172  0.95426883  0.82400505     0.84100
O1564       O  0.67659943  0.93697402  0.81197327    -0.77100
C1565       C  0.79509003  0.59029127  0.82410164     0.84900
O1566       O  0.69780526  0.90469224  0.72093535    -0.77200
C1567       C  0.83376432  0.54639648  0.67835511     0.85000
C1568       C  0.70541293  0.54289789  0.67823010     0.85300
O1569       O  0.71119196  0.51689727  0.66253216    -0.79600
O1570       O  0.67665566  0.73982026  0.81003483    -0.77100
C1571       C  0.79066020  0.83637260  0.82353942     0.83900
O1572       O  0.72718848  0.78432721  0.66201597    -0.78200
O1573       O  0.83967733  0.79760797  0.71887240    -0.79700
O1574       O  0.75966726  0.68458480  0.81379228    -0.79500
O1575       O  0.67421023  0.68305530  0.81369954    -0.78100
Zn1576     Zn  0.72066410  0.77541543  0.77158766     1.55700
O1577       O  0.81575136  0.73950883  0.81011297    -0.79500
Cd1578     Cd  0.72243522  0.69493970  0.77517383     1.59700
Cd1579     Cd  0.74683738  0.74930227  0.68686369     1.59600
O1580       O  0.70852461  0.65880804  0.71977770    -0.79500
O1581       O  0.74798160  0.74932254  0.75325925    -1.90000
Cd1582     Cd  0.80281519  0.77668187  0.77421431     1.59900
O1583       O  0.71262809  0.69466576  0.66141515    -0.79500
O1584       O  0.81249386  0.82252258  0.81542082    -0.78100
C1585       C  0.70549074  0.79588778  0.67786127     0.84400
C1586       C  0.66112420  0.70524903  0.82378627     0.84100
O1587       O  0.75648374  0.82129790  0.80831584    -0.77100
C1588       C  0.79536670  0.70465514  0.82303730     0.86300
O1589       O  0.69868675  0.79311009  0.71998401    -0.77200
C1590       C  0.70574892  0.66264232  0.67748356     0.85000
C1591       C  0.83461919  0.78886693  0.67709176     0.85300
O1592       O  0.80104254  0.76781963  0.66152640    -0.79600
O1593       O  0.67889075  0.93506571  0.93964705    -0.77100
C1594       C  0.79543723  0.95606153  0.92341564     0.83900
O1595       O  0.71603512  0.94214394  0.58539914    -0.78200
O1596       O  0.84155948  0.55008165  0.52848032    -0.79700
O1597       O  0.76062076  0.57570449  0.93760893    -0.79500
O1598       O  0.67773647  0.98991462  0.93300831    -0.78100
Zn1599     Zn  0.72495624  0.94477764  0.97595959     1.55700
O1600       O  0.81569226  0.57486570  0.93392359    -0.79500
Cd1601     Cd  0.72390903  0.52578835  0.97368852     1.59700
Cd1602     Cd  0.75138226  0.99694546  0.56084977     1.59600
O1603       O  0.70378351  0.54238313  0.52889139    -0.79500
O1604       O  0.75123070  0.99820459  0.99448006    -1.90000
Cd1605     Cd  0.80567111  0.52743254  0.97278503     1.59900
O1606       O  0.73357076  0.53330386  0.58614376    -0.79500
O1607       O  0.81778393  0.99112877  0.93435913    -0.78100
C1608       C  0.70417852  0.90877082  0.56971719     0.84400
C1609       C  0.66377667  0.95425626  0.92478722     0.84100
O1610       O  0.76070649  0.93698616  0.93673179    -0.77100
C1611       C  0.79544629  0.59030937  0.92466550     0.84900
O1612       O  0.70701112  0.90462916  0.52758688    -0.77200
C1613       C  0.71291113  0.54629549  0.57052232     0.85000
C1614       C  0.83777850  0.54287724  0.57066752     0.85300
O1615       O  0.80598403  0.51693916  0.58639225    -0.79600
O1616       O  0.75948759  0.82288117  0.93562606    -0.77100
C1617       C  0.66249542  0.70747817  0.92324653     0.83900
O1618       O  0.71530669  0.77287407  0.58439261    -0.78200
O1619       O  0.70296384  0.66034129  0.52828222    -0.79700
O1620       O  0.81447573  0.74061779  0.93198107    -0.79500
O1621       O  0.81672779  0.82611442  0.93409557    -0.78100
Zn1622     Zn  0.72340064  0.77880219  0.97445716     1.55700
O1623       O  0.76015497  0.68413249  0.93716898    -0.79500
Cd1624     Cd  0.80432111  0.77734234  0.97150823     1.59700
Cd1625     Cd  0.75079293  0.75367658  0.55951609     1.59600
O1626       O  0.84031602  0.78974970  0.52680411    -0.79500
O1627       O  0.74993619  0.75194410  0.99317106    -1.90000
Cd1628     Cd  0.72293360  0.69689920  0.97286031     1.59900
O1629       O  0.80555043  0.78873780  0.58473548    -0.79500
O1630       O  0.67663312  0.68602198  0.93204106    -0.78100
C1631       C  0.70330628  0.79431727  0.56880734     0.84400
C1632       C  0.79443536  0.83880938  0.92294499     0.84100
O1633       O  0.67739814  0.74192897  0.93771256    -0.77100
C1634       C  0.79473030  0.70477436  0.92353136     0.84900
O1635       O  0.70554919  0.80089091  0.52656778    -0.77200
C1636       C  0.83698998  0.79364166  0.56895612     0.85000
C1637       C  0.71270775  0.66589197  0.56971868     0.85300
O1638       O  0.73372602  0.69966548  0.58482187    -0.79600
C1639       C  0.83289951  0.66667615  0.91819318     0.46900
H1640       H  0.83253151  0.66669800  0.95555597    -0.02200
C1641       C  0.83383203  0.66664317  0.83042624     0.46900
H1642       H  0.83420143  0.66662034  0.79306337    -0.02200
C1643       C  0.81285595  0.62598615  0.89739306    -0.15900
C1644       C  0.81259244  0.68678238  0.89672675    -0.15600
C1645       C  0.87383164  0.68722260  0.89792511    -0.16000
C1646       C  0.81332717  0.62597400  0.85131181    -0.16000
C1647       C  0.81332510  0.68707947  0.85065305    -0.15500
C1648       C  0.87425563  0.68691898  0.85185499    -0.15900
loop_ 
_geom_bond_atom_site_label_1 
_geom_bond_atom_site_label_2 
_geom_bond_distance 
_geom_bond_site_symmetry_2 
_ccdc_geom_bond_type 
C1            H2   1.110       .  S
C1            C7   1.549       .  S
C1            C6   1.550       .  S
C1            C5   1.550       .  S
C3            H4   1.110       .  S
C3            C9   1.549       .  S
C3            C8   1.550       .  S
C3           C10   1.550       .  S
C5            C8   1.399       .  D
C5          C120   1.518       .  S
C6            C9   1.398       .  D
C6          C143   1.513       .  S
C7           C10   1.400       .  D
C7           C73   1.519       .  S
C8          C166   1.517       .  S
C9          C189   1.519       .  S
C10          C50   1.515       .  S
C11          C12   1.410       .  A
C11          C16   1.401       .  A
C11          C51   1.466       .  S
C12          C13   1.400       .  A
C12          C59   1.469       .  S
C13          C14   1.401       .  A
C13          H18   1.086       .  S
C14          C15   1.410       .  A
C14         C144   1.467       .  S
C15          C16   1.400       .  A
C15         C175   1.469       .  S
C16          H17   1.086       .  S
C19          C20   1.410       .  A
C19          C24   1.398       .  A
C19          C36   1.468       .  S
C20          C21   1.402       .  A
C20          C74   1.466       .  S
C21          C22   1.402       .  A
C21          H26   1.086       .  S
C22          C23   1.411       .  A
C22         C106   1.467       .  S
C23          C24   1.398       .  A
C23         C167   1.468       .  S
C24          H25   1.086       .  S
C27          C28   1.435       .  A
C27          C32   1.409       .  A
C27         C194   1.508       .  S
C28          C29   1.408       .  A
C28         C149   1.502       .  S
C29          C30   1.409       .  A
C29          H34   1.082       .  S
C30          C31   1.436       .  A
C30          C78   1.508       .  S
C31          C32   1.408       .  A
C31          C56   1.504       .  S
C32          H33   1.082       .  S
O35          C51   1.272       .  A
O35         Zn41   1.986       .  S
C36          O52   1.275       .  A
C36          O49   1.275       .  A
O37          C50   1.265       .  A
O37        Cd868   2.062       .  S
O38          C56   1.279       .  A
O38        Cd253   2.089   1_554  S
O39          C53   1.275       .  A
O39         Cd43   2.086       .  S
O40          C51   1.277       .  A
O40        Cd867   2.090   1_455  S
Zn41         O52   2.001       .  S
Zn41        O260   2.068       .  S
Zn41         O46   1.939       .  S
O42          C53   1.278       .  A
O42         Cd47   2.101       .  S
Cd43        O864   2.090       .  S
Cd43        O251   2.080       .  S
Cd43        O870   2.004       .  S
Cd44         O48   2.062       .  S
Cd44         O57   2.063       .  S
Cd44        O861   2.062       .  S
Cd44       O1076   1.974   1_554  S
O45          C55   1.279       .  A
O45        Cd249   2.080   1_554  S
O46        Cd867   2.004   1_455  S
O46       Cd1074   1.974       .  S
O46        Cd871   2.008   1_455  S
Cd47        O244   2.089       .  S
Cd47        O873   2.081       .  S
Cd47        O870   2.008       .  S
O48          C55   1.266       .  A
O49        Cd871   2.081   1_455  S
C50          O54   1.275       .  A
C53         C203   1.484       .  S
O54        Zn247   2.068   1_554  S
C55          C82   1.504       .  S
C56          O57   1.269       .  A
O58          C74   1.275       .  A
O58         Zn64   2.001       .  S
C59          O75   1.277       .  A
C59          O72   1.274       .  A
O60          C73   1.266       .  A
O60         Cd67   2.065       .  S
O61          C79   1.278       .  A
O61         Cd70   2.082       .  S
O62          C76   1.274       .  A
O62         Cd66   2.081       .  S
O63          C74   1.276       .  A
O63        Cd890   2.084   1_455  S
Zn64         O75   2.014       .  S
Zn64         O77   2.084       .  S
Zn64         O69   1.942       .  S
O65          C76   1.277       .  A
O65         Cd70   2.096       .  S
Cd66         O68   2.081       .  S
Cd66        O887   2.084       .  S
Cd66        O893   2.001       .  S
Cd67        O895   2.068   1_455  S
Cd67        O904   2.065   1_455  S
Cd67         O69   1.973       .  S
O68          C78   1.279       .  A
O69        Cd890   2.001   1_455  S
O69        Cd894   2.009   1_455  S
Cd70        O896   2.078       .  S
Cd70        O893   2.009       .  S
O71          C78   1.266       .  A
O71        Cd891   2.068       .  S
O72        Cd894   2.078   1_455  S
C73          O77   1.277       .  A
C76         C206   1.481       .  S
C79          C81   1.501       .  S
C79          O80   1.269       .  A
O80        Cd891   2.065       .  S
C81          C82   1.435       .  A
C81          C86   1.406       .  A
C82          C83   1.409       .  A
C83          C84   1.409       .  A
C83          H88   1.083       .  S
C84          C85   1.434       .  A
C84         C172   1.505       .  S
C85          C86   1.406       .  A
C85         C125   1.499       .  S
C86          H87   1.084       .  S
C89          C90   1.434       .  A
C89          C94   1.406       .  A
C89         C171   1.499       .  S
C90          C91   1.409       .  A
C90         C126   1.505       .  S
C91          C92   1.410       .  A
C91          H96   1.083       .  S
C92          C93   1.434       .  A
C92         C148   1.504       .  S
C93          C94   1.406       .  A
C93         C195   1.500       .  S
C94          H95   1.084       .  S
C97          C98   1.411       .  A
C97         C102   1.403       .  A
C97         C152   1.468       .  S
C98          C99   1.398       .  A
C98         C121   1.467       .  S
C99         C100   1.397       .  A
C99         H104   1.086       .  S
C100        C101   1.410       .  A
C100        C129   1.468       .  S
C101        C102   1.403       .  A
C101        C190   1.467       .  S
C102        H103   1.086       .  S
O105        C121   1.275       .  A
O105       Zn111   2.004       .  S
C106        O122   1.273       .  A
C106        O119   1.277       .  A
O107        C120   1.267       .  A
O107       Cd114   2.069       .  S
O108        C126   1.279       .  A
O108       Cd117   2.083       .  S
O109        C123   1.276       .  A
O109       Cd113   2.094       .  S
O110        C121   1.274       .  A
O110       Cd525   2.075       .  S
Zn111       O122   1.992       .  S
Zn111       O124   2.078       .  S
Zn111       O116   1.938       .  S
O112        C123   1.275       .  A
O112       Cd117   2.087       .  S
Cd113       O115   2.082       .  S
Cd113       O522   2.075   1_545  S
Cd113       O528   2.008   1_545  S
Cd114       O530   2.064       .  S
Cd114       O539   2.067       .  S
Cd114       O116   1.974       .  S
O115        C125   1.279       .  A
O116       Cd525   2.008       .  S
O116       Cd529   2.002       .  S
Cd117       O531   2.092   1_545  S
Cd117       O528   2.002   1_545  S
O118        C125   1.269       .  A
O118       Cd526   2.064   1_545  S
O119       Cd529   2.092       .  S
C120        O124   1.277       .  A
C123        C204   1.482       .  S
C126        O127   1.267       .  A
O127       Cd526   2.067   1_545  S
O128        C144   1.272       .  A
O128       Zn134   1.987       .  S
C129        O145   1.275       .  A
C129        O142   1.275       .  A
O130        C143   1.266       .  A
O130       Cd137   2.064       .  S
O131        C149   1.279       .  A
O131       Cd140   2.089       .  S
O132        C146   1.275       .  A
O132       Cd136   2.086       .  S
O133        C144   1.277       .  A
O133       Cd136   2.090       .  S
Zn134       O145   2.002       .  S
Zn134       O147   2.066       .  S
Zn134       O139   1.937       .  S
O135        C146   1.278       .  A
O135       Cd140   2.102       .  S
Cd136       O138   2.079       .  S
Cd136       O139   2.002       .  S
Cd137       O141   2.065       .  S
Cd137       O150   2.060       .  S
Cd137       O139   1.975       .  S
O138        C148   1.279       .  A
O139       Cd140   2.007       .  S
Cd140       O142   2.081       .  S
O141        C148   1.267       .  A
C143        O147   1.275       .  A
C146        C205   1.484       .  S
C149        O150   1.268       .  A
O151        C167   1.275       .  A
O151       Zn157   2.005       .  S
C152        O168   1.274       .  A
C152        O165   1.278       .  A
O153        C166   1.266       .  A
O153       Cd160   2.067       .  S
O154        C172   1.279       .  A
O154       Cd369   2.083   1_554  S
O155        C169   1.276       .  A
O155       Cd159   2.095       .  S
O156        C167   1.274       .  A
O156       Cd571   2.076       .  S
Zn157       O168   1.993       .  S
Zn157       O376   2.078       .  S
Zn157       O162   1.939       .  S
O158        C169   1.276       .  A
O158       Cd163   2.089       .  S
Cd159       O568   2.076   1_545  S
Cd159       O367   2.081       .  S
Cd159       O574   2.008   1_545  S
Cd160       O576   2.063       .  S
Cd160       O585   2.067       .  S
Cd160       O368   1.975   1_554  S
O161        C171   1.278       .  A
O161       Cd365   2.081   1_554  S
O162       Cd571   2.008       .  S
O162       Cd366   1.974       .  S
O162       Cd575   2.003       .  S
Cd163       O360   2.083       .  S
Cd163       O577   2.093   1_545  S
Cd163       O574   2.003   1_545  S
O164        C171   1.269       .  A
O164       Cd572   2.063   1_545  S
O165       Cd575   2.093       .  S
C166        O170   1.276       .  A
C169        C201   1.483       .  S
O170       Zn363   2.078   1_554  S
C172        O173   1.267       .  A
O173       Cd572   2.067   1_545  S
O174        C190   1.275       .  A
O174       Zn180   2.001       .  S
C175        O191   1.277       .  A
C175        O188   1.274       .  A
O176        C189   1.267       .  A
O176       Cd183   2.067       .  S
O177        C195   1.278       .  A
O177       Cd392   2.083   1_554  S
O178        C192   1.274       .  A
O178       Cd182   2.080       .  S
O179        C190   1.276       .  A
O179       Cd182   2.086       .  S
Zn180       O191   2.017       .  S
Zn180       O399   2.083       .  S
Zn180       O185   1.939       .  S
O181        C192   1.277       .  A
O181       Cd186   2.096       .  S
Cd182       O390   2.079       .  S
Cd182       O185   2.000       .  S
Cd183       O187   2.071       .  S
Cd183       O196   2.063       .  S
Cd183       O391   1.974   1_554  S
O184        C194   1.279       .  A
O184       Cd388   2.079   1_554  S
O185       Cd186   2.008       .  S
O185       Cd389   1.974       .  S
Cd186       O188   2.077       .  S
Cd186       O383   2.083       .  S
O187        C194   1.267       .  A
C189        O193   1.278       .  A
C192        C202   1.480       .  S
O193       Zn386   2.083   1_554  S
C195        O196   1.269       .  A
C197        H198   1.111       .  S
C197        C203   1.547       .  S
C197        C202   1.544       .  S
C197        C201   1.545       .  S
C199        H200   1.111       .  S
C199        C205   1.546       .  S
C199        C204   1.545       .  S
C199        C206   1.544       .  S
C201        C204   1.371       .  D
C202        C205   1.370       .  D
C203        C206   1.370       .  D
C207        H208   1.110       .  S
C207        C213   1.549       .  S
C207        C212   1.550       .  S
C207        C211   1.550       .  S
C209        H210   1.110       .  S
C209        C215   1.549       .  S
C209        C214   1.550       .  S
C209        C216   1.550       .  S
C211        C214   1.399       .  D
C211        C326   1.518       .  S
C212        C215   1.398       .  D
C212        C349   1.513       .  S
C213        C216   1.400       .  D
C213        C279   1.519       .  S
C214        C372   1.517       .  S
C215        C395   1.519       .  S
C216        C256   1.515       .  S
C217        C218   1.410       .  A
C217        C222   1.401       .  A
C217        C257   1.466       .  S
C218        C219   1.400       .  A
C218        C265   1.469       .  S
C219        C220   1.401       .  A
C219        H224   1.086       .  S
C220        C221   1.410       .  A
C220        C350   1.467       .  S
C221        C222   1.400       .  A
C221        C381   1.469       .  S
C222        H223   1.086       .  S
C225        C226   1.410       .  A
C225        C230   1.398       .  A
C225        C242   1.468       .  S
C226        C227   1.402       .  A
C226        C280   1.466       .  S
C227        C228   1.402       .  A
C227        H232   1.086       .  S
C228        C229   1.411       .  A
C228        C312   1.467       .  S
C229        C230   1.398       .  A
C229        C373   1.468       .  S
C230        H231   1.086       .  S
C233        C234   1.435       .  A
C233        C238   1.409       .  A
C233        C400   1.508       .  S
C234        C235   1.408       .  A
C234        C355   1.502       .  S
C235        C236   1.409       .  A
C235        H240   1.082       .  S
C236        C237   1.436       .  A
C236        C284   1.508       .  S
C237        C238   1.408       .  A
C237        C262   1.504       .  S
C238        H239   1.082       .  S
O241        C257   1.272       .  A
O241       Zn247   1.986       .  S
C242        O258   1.275       .  A
C242        O255   1.275       .  A
O243        C256   1.265       .  A
O243      Cd1074   2.062       .  S
O244        C262   1.279       .  A
O245        C259   1.275       .  A
O245       Cd249   2.086       .  S
O246        C257   1.277       .  A
O246      Cd1073   2.090   1_455  S
Zn247       O258   2.001       .  S
Zn247       O252   1.939       .  S
O248        C259   1.278       .  A
O248       Cd253   2.101       .  S
Cd249      O1070   2.090       .  S
Cd249      O1076   2.004       .  S
Cd250      O1067   2.062       .  S
Cd250       O254   2.062       .  S
Cd250       O263   2.063       .  S
Cd250       O870   1.974       .  S
O251        C261   1.279       .  A
O252      Cd1073   2.004   1_455  S
O252       Cd868   1.974   1_556  S
O252      Cd1077   2.008   1_455  S
Cd253      O1079   2.081       .  S
Cd253      O1076   2.008       .  S
O254        C261   1.266       .  A
O255      Cd1077   2.081   1_455  S
C256        O260   1.275       .  A
C259        C409   1.484       .  S
C261        C288   1.504       .  S
C262        O263   1.269       .  A
O264        C280   1.275       .  A
O264       Zn270   2.001       .  S
C265        O281   1.277       .  A
C265        O278   1.274       .  A
O266        C279   1.266       .  A
O266       Cd273   2.065       .  S
O267        C285   1.278       .  A
O267       Cd276   2.082       .  S
O268        C282   1.274       .  A
O268       Cd272   2.081       .  S
O269        C280   1.276       .  A
O269      Cd1096   2.084   1_455  S
Zn270       O281   2.014       .  S
Zn270       O283   2.084       .  S
Zn270       O275   1.942       .  S
O271        C282   1.277       .  A
O271       Cd276   2.096       .  S
Cd272      O1093   2.084       .  S
Cd272       O274   2.081       .  S
Cd272      O1099   2.001       .  S
Cd273      O1101   2.068   1_455  S
Cd273      O1110   2.065   1_455  S
Cd273       O275   1.973       .  S
O274        C284   1.279       .  A
O275      Cd1096   2.001   1_455  S
O275      Cd1100   2.009   1_455  S
Cd276      O1102   2.078       .  S
Cd276      O1099   2.009       .  S
O277        C284   1.266       .  A
O277      Cd1097   2.068       .  S
O278      Cd1100   2.078   1_455  S
C279        O283   1.277       .  A
C282        C412   1.481       .  S
C285        C287   1.501       .  S
C285        O286   1.269       .  A
O286      Cd1097   2.065       .  S
C287        C288   1.435       .  A
C287        C292   1.406       .  A
C288        C289   1.409       .  A
C289        C290   1.409       .  A
C289        H294   1.083       .  S
C290        C291   1.434       .  A
C290        C378   1.505       .  S
C291        C292   1.406       .  A
C291        C331   1.499       .  S
C292        H293   1.084       .  S
C295        C296   1.434       .  A
C295        C300   1.406       .  A
C295        C377   1.499       .  S
C296        C297   1.409       .  A
C296        C332   1.505       .  S
C297        C298   1.410       .  A
C297        H302   1.083       .  S
C298        C299   1.434       .  A
C298        C354   1.504       .  S
C299        C300   1.406       .  A
C299        C401   1.500       .  S
C300        H301   1.084       .  S
C303        C304   1.411       .  A
C303        C308   1.403       .  A
C303        C358   1.468       .  S
C304        C305   1.398       .  A
C304        C327   1.467       .  S
C305        C306   1.397       .  A
C305        H310   1.086       .  S
C306        C307   1.410       .  A
C306        C335   1.468       .  S
C307        C308   1.403       .  A
C307        C396   1.467       .  S
C308        H309   1.086       .  S
O311        C327   1.275       .  A
O311       Zn317   2.004       .  S
C312        O328   1.273       .  A
C312        O325   1.277       .  A
O313        C326   1.267       .  A
O313       Cd320   2.069       .  S
O314        C332   1.279       .  A
O314       Cd323   2.083       .  S
O315        C329   1.276       .  A
O315       Cd319   2.095       .  S
O316        C327   1.274       .  A
O316       Cd731   2.075       .  S
Zn317       O328   1.992       .  S
Zn317       O330   2.078       .  S
Zn317       O322   1.938       .  S
O318        C329   1.275       .  A
O318       Cd323   2.087       .  S
Cd319       O728   2.075   1_545  S
Cd319       O321   2.082       .  S
Cd319       O734   2.008   1_545  S
Cd320       O736   2.064       .  S
Cd320       O745   2.067       .  S
Cd320       O322   1.974       .  S
O321        C331   1.279       .  A
O322       Cd731   2.008       .  S
O322       Cd735   2.002       .  S
Cd323       O737   2.092   1_545  S
Cd323       O734   2.002   1_545  S
O324        C331   1.269       .  A
O324       Cd732   2.064   1_545  S
O325       Cd735   2.092       .  S
C326        O330   1.277       .  A
C329        C410   1.482       .  S
C332        O333   1.267       .  A
O333       Cd732   2.067   1_545  S
O334        C350   1.272       .  A
O334       Zn340   1.987       .  S
C335        O351   1.275       .  A
C335        O348   1.275       .  A
O336        C349   1.266       .  A
O336       Cd343   2.064       .  S
O337        C355   1.279       .  A
O337       Cd346   2.089       .  S
O338        C352   1.275       .  A
O338       Cd342   2.086       .  S
O339        C350   1.277       .  A
O339       Cd342   2.090       .  S
Zn340       O351   2.002       .  S
Zn340       O353   2.066       .  S
Zn340       O345   1.937       .  S
O341        C352   1.278       .  A
O341       Cd346   2.102       .  S
Cd342       O344   2.079       .  S
Cd342       O345   2.002       .  S
Cd343       O347   2.065       .  S
Cd343       O356   2.060       .  S
Cd343       O345   1.975       .  S
O344        C354   1.279       .  A
O345       Cd346   2.007       .  S
Cd346       O348   2.081       .  S
O347        C354   1.267       .  A
C349        O353   1.275       .  A
C352        C411   1.484       .  S
C355        O356   1.268       .  A
O357        C373   1.275       .  A
O357       Zn363   2.005       .  S
C358        O374   1.274       .  A
C358        O371   1.278       .  A
O359        C372   1.266       .  A
O359       Cd366   2.067       .  S
O360        C378   1.279       .  A
O361        C375   1.276       .  A
O361       Cd365   2.095       .  S
O362        C373   1.274       .  A
O362       Cd777   2.076       .  S
Zn363       O374   1.993       .  S
Zn363       O368   1.939       .  S
O364        C375   1.276       .  A
O364       Cd369   2.089       .  S
Cd365       O774   2.076   1_545  S
Cd365       O780   2.008   1_545  S
Cd366       O782   2.063       .  S
Cd366       O791   2.067       .  S
O367        C377   1.278       .  A
O368       Cd777   2.008       .  S
O368       Cd781   2.003       .  S
Cd369       O783   2.093   1_545  S
Cd369       O780   2.003   1_545  S
O370        C377   1.269       .  A
O370       Cd778   2.063   1_545  S
O371       Cd781   2.093       .  S
C372        O376   1.276       .  A
C375        C407   1.483       .  S
C378        O379   1.267       .  A
O379       Cd778   2.067   1_545  S
O380        C396   1.275       .  A
O380       Zn386   2.001       .  S
C381        O397   1.277       .  A
C381        O394   1.274       .  A
O382        C395   1.267       .  A
O382       Cd389   2.067       .  S
O383        C401   1.278       .  A
O384        C398   1.274       .  A
O384       Cd388   2.080       .  S
O385        C396   1.276       .  A
O385       Cd388   2.086       .  S
Zn386       O397   2.017       .  S
Zn386       O391   1.939       .  S
O387        C398   1.277       .  A
O387       Cd392   2.096       .  S
Cd388       O391   2.000       .  S
Cd389       O393   2.071       .  S
Cd389       O402   2.063       .  S
O390        C400   1.279       .  A
O391       Cd392   2.008       .  S
Cd392       O394   2.077       .  S
O393        C400   1.267       .  A
C395        O399   1.278       .  A
C398        C408   1.480       .  S
C401        O402   1.269       .  A
C403        H404   1.111       .  S
C403        C409   1.547       .  S
C403        C408   1.544       .  S
C403        C407   1.545       .  S
C405        H406   1.111       .  S
C405        C411   1.546       .  S
C405        C410   1.545       .  S
C405        C412   1.544       .  S
C407        C410   1.371       .  D
C408        C411   1.370       .  D
C409        C412   1.370       .  D
C413        H414   1.110       .  S
C413        C419   1.549       .  S
C413        C418   1.550       .  S
C413        C417   1.550       .  S
C415        H416   1.110       .  S
C415        C421   1.549       .  S
C415        C420   1.550       .  S
C415        C422   1.550       .  S
C417        C420   1.399       .  D
C417        C532   1.518       .  S
C418        C421   1.398       .  D
C418        C555   1.513       .  S
C419        C422   1.400       .  D
C419        C485   1.519       .  S
C420        C578   1.517       .  S
C421        C601   1.519       .  S
C422        C462   1.515       .  S
C423        C424   1.410       .  A
C423        C428   1.401       .  A
C423        C463   1.466       .  S
C424        C425   1.400       .  A
C424        C471   1.469       .  S
C425        C426   1.401       .  A
C425        H430   1.086       .  S
C426        C427   1.410       .  A
C426        C556   1.467       .  S
C427        C428   1.400       .  A
C427        C587   1.469       .  S
C428        H429   1.086       .  S
C431        C432   1.410       .  A
C431        C436   1.398       .  A
C431        C448   1.468       .  S
C432        C433   1.402       .  A
C432        C486   1.466       .  S
C433        C434   1.402       .  A
C433        H438   1.086       .  S
C434        C435   1.411       .  A
C434        C518   1.467       .  S
C435        C436   1.398       .  A
C435        C579   1.468       .  S
C436        H437   1.086       .  S
C439        C440   1.435       .  A
C439        C444   1.409       .  A
C439        C606   1.508       .  S
C440        C441   1.408       .  A
C440        C561   1.502       .  S
C441        C442   1.409       .  A
C441        H446   1.082       .  S
C442        C443   1.436       .  A
C442        C490   1.508       .  S
C443        C444   1.408       .  A
C443        C468   1.504       .  S
C444        H445   1.082       .  S
O447        C463   1.272       .  A
O447       Zn453   1.986       .  S
C448        O464   1.275       .  A
C448        O461   1.275       .  A
O449        C462   1.265       .  A
O449      Cd1280   2.062       .  S
O450        C468   1.279       .  A
O450       Cd665   2.089   1_554  S
O451        C465   1.275       .  A
O451       Cd455   2.086       .  S
O452        C463   1.277       .  A
O452      Cd1279   2.090   1_455  S
Zn453       O464   2.001       .  S
Zn453       O672   2.068       .  S
Zn453       O458   1.939       .  S
O454        C465   1.278       .  A
O454       Cd459   2.101       .  S
Cd455      O1276   2.090       .  S
Cd455       O663   2.080       .  S
Cd455      O1282   2.004       .  S
Cd456      O1273   2.062       .  S
Cd456       O460   2.062       .  S
Cd456       O469   2.063       .  S
Cd456      O1488   1.974   1_554  S
O457        C467   1.279       .  A
O457       Cd661   2.080   1_554  S
O458      Cd1279   2.004   1_455  S
O458      Cd1486   1.974       .  S
O458      Cd1283   2.008   1_455  S
Cd459       O656   2.089       .  S
Cd459      O1285   2.081       .  S
Cd459      O1282   2.008       .  S
O460        C467   1.266       .  A
O461      Cd1283   2.081   1_455  S
C462        O466   1.275       .  A
C465        C615   1.484       .  S
O466       Zn659   2.068   1_554  S
C467        C494   1.504       .  S
C468        O469   1.269       .  A
O470        C486   1.275       .  A
O470       Zn476   2.001       .  S
C471        O487   1.277       .  A
C471        O484   1.274       .  A
O472        C485   1.266       .  A
O472       Cd479   2.065       .  S
O473        C491   1.278       .  A
O473       Cd482   2.082       .  S
O474        C488   1.274       .  A
O474       Cd478   2.081       .  S
O475        C486   1.276       .  A
O475      Cd1302   2.084   1_455  S
Zn476       O487   2.014       .  S
Zn476       O489   2.084       .  S
Zn476       O481   1.942       .  S
O477        C488   1.277       .  A
O477       Cd482   2.096       .  S
Cd478      O1299   2.084       .  S
Cd478       O480   2.081       .  S
Cd478      O1305   2.001       .  S
Cd479      O1307   2.068   1_455  S
Cd479      O1316   2.065   1_455  S
Cd479       O481   1.973       .  S
O480        C490   1.279       .  A
O481      Cd1302   2.001   1_455  S
O481      Cd1306   2.009   1_455  S
Cd482      O1308   2.078       .  S
Cd482      O1305   2.009       .  S
O483        C490   1.266       .  A
O483      Cd1303   2.068       .  S
O484      Cd1306   2.078   1_455  S
C485        O489   1.277       .  A
C488        C618   1.481       .  S
C491        C493   1.501       .  S
C491        O492   1.269       .  A
O492      Cd1303   2.065       .  S
C493        C494   1.435       .  A
C493        C498   1.406       .  A
C494        C495   1.409       .  A
C495        C496   1.409       .  A
C495        H500   1.083       .  S
C496        C497   1.434       .  A
C496        C584   1.505       .  S
C497        C498   1.406       .  A
C497        C537   1.499       .  S
C498        H499   1.084       .  S
C501        C502   1.434       .  A
C501        C506   1.406       .  A
C501        C583   1.499       .  S
C502        C503   1.409       .  A
C502        C538   1.505       .  S
C503        C504   1.410       .  A
C503        H508   1.083       .  S
C504        C505   1.434       .  A
C504        C560   1.504       .  S
C505        C506   1.406       .  A
C505        C607   1.500       .  S
C506        H507   1.084       .  S
C509        C510   1.411       .  A
C509        C514   1.403       .  A
C509        C564   1.468       .  S
C510        C511   1.398       .  A
C510        C533   1.467       .  S
C511        C512   1.397       .  A
C511        H516   1.086       .  S
C512        C513   1.410       .  A
C512        C541   1.468       .  S
C513        C514   1.403       .  A
C513        C602   1.467       .  S
C514        H515   1.086       .  S
O517        C533   1.275       .  A
O517       Zn523   2.004       .  S
C518        O534   1.273       .  A
C518        O531   1.277       .  A
O519        C532   1.267       .  A
O519       Cd526   2.069       .  S
O520        C538   1.279       .  A
O520       Cd529   2.083       .  S
O521        C535   1.276       .  A
O521       Cd525   2.095       .  S
O522        C533   1.274       .  A
Zn523       O534   1.992       .  S
Zn523       O536   2.078       .  S
Zn523       O528   1.938       .  S
O524        C535   1.275       .  A
O524       Cd529   2.087       .  S
Cd525       O527   2.082       .  S
Cd526       O528   1.974       .  S
O527        C537   1.279       .  A
O530        C537   1.269       .  A
C532        O536   1.277       .  A
C535        C616   1.482       .  S
C538        O539   1.267       .  A
O540        C556   1.272       .  A
O540       Zn546   1.987       .  S
C541        O557   1.275       .  A
C541        O554   1.275       .  A
O542        C555   1.266       .  A
O542       Cd549   2.064       .  S
O543        C561   1.279       .  A
O543       Cd552   2.089       .  S
O544        C558   1.275       .  A
O544       Cd548   2.086       .  S
O545        C556   1.277       .  A
O545       Cd548   2.090       .  S
Zn546       O557   2.002       .  S
Zn546       O559   2.066       .  S
Zn546       O551   1.937       .  S
O547        C558   1.278       .  A
O547       Cd552   2.102       .  S
Cd548       O550   2.079       .  S
Cd548       O551   2.002       .  S
Cd549       O553   2.065       .  S
Cd549       O562   2.060       .  S
Cd549       O551   1.975       .  S
O550        C560   1.279       .  A
O551       Cd552   2.007       .  S
Cd552       O554   2.081       .  S
O553        C560   1.267       .  A
C555        O559   1.275       .  A
C558        C617   1.484       .  S
C561        O562   1.268       .  A
O563        C579   1.275       .  A
O563       Zn569   2.005       .  S
C564        O580   1.274       .  A
C564        O577   1.278       .  A
O565        C578   1.266       .  A
O565       Cd572   2.067       .  S
O566        C584   1.279       .  A
O566       Cd781   2.083   1_554  S
O567        C581   1.276       .  A
O567       Cd571   2.095       .  S
O568        C579   1.274       .  A
Zn569       O580   1.993       .  S
Zn569       O788   2.078       .  S
Zn569       O574   1.939       .  S
O570        C581   1.276       .  A
O570       Cd575   2.089       .  S
Cd571       O779   2.081       .  S
Cd572       O780   1.975   1_554  S
O573        C583   1.278       .  A
O573       Cd777   2.081   1_554  S
O574       Cd778   1.974       .  S
Cd575       O772   2.083       .  S
O576        C583   1.269       .  A
C578        O582   1.276       .  A
C581        C613   1.483       .  S
O582       Zn775   2.078   1_554  S
C584        O585   1.267       .  A
O586        C602   1.275       .  A
O586       Zn592   2.001       .  S
C587        O603   1.277       .  A
C587        O600   1.274       .  A
O588        C601   1.267       .  A
O588       Cd595   2.067       .  S
O589        C607   1.278       .  A
O589       Cd804   2.083   1_554  S
O590        C604   1.274       .  A
O590       Cd594   2.080       .  S
O591        C602   1.276       .  A
O591       Cd594   2.086       .  S
Zn592       O603   2.017       .  S
Zn592       O811   2.083       .  S
Zn592       O597   1.939       .  S
O593        C604   1.277       .  A
O593       Cd598   2.096       .  S
Cd594       O802   2.079       .  S
Cd594       O597   2.000       .  S
Cd595       O599   2.071       .  S
Cd595       O608   2.063       .  S
Cd595       O803   1.974   1_554  S
O596        C606   1.279       .  A
O596       Cd800   2.079   1_554  S
O597       Cd801   1.974       .  S
O597       Cd598   2.008       .  S
Cd598       O795   2.083       .  S
Cd598       O600   2.077       .  S
O599        C606   1.267       .  A
C601        O605   1.278       .  A
C604        C614   1.480       .  S
O605       Zn798   2.083   1_554  S
C607        O608   1.269       .  A
C609        H610   1.111       .  S
C609        C615   1.547       .  S
C609        C614   1.544       .  S
C609        C613   1.545       .  S
C611        H612   1.111       .  S
C611        C617   1.546       .  S
C611        C616   1.545       .  S
C611        C618   1.544       .  S
C613        C616   1.371       .  D
C614        C617   1.370       .  D
C615        C618   1.370       .  D
C619        H620   1.110       .  S
C619        C625   1.549       .  S
C619        C624   1.550       .  S
C619        C623   1.550       .  S
C621        H622   1.110       .  S
C621        C627   1.549       .  S
C621        C626   1.550       .  S
C621        C628   1.550       .  S
C623        C626   1.399       .  D
C623        C738   1.518       .  S
C624        C627   1.398       .  D
C624        C761   1.513       .  S
C625        C628   1.400       .  D
C625        C691   1.519       .  S
C626        C784   1.517       .  S
C627        C807   1.519       .  S
C628        C668   1.515       .  S
C629        C630   1.410       .  A
C629        C634   1.401       .  A
C629        C669   1.466       .  S
C630        C631   1.400       .  A
C630        C677   1.469       .  S
C631        C632   1.401       .  A
C631        H636   1.086       .  S
C632        C633   1.410       .  A
C632        C762   1.467       .  S
C633        C634   1.400       .  A
C633        C793   1.469       .  S
C634        H635   1.086       .  S
C637        C638   1.410       .  A
C637        C642   1.398       .  A
C637        C654   1.468       .  S
C638        C639   1.402       .  A
C638        C692   1.466       .  S
C639        C640   1.402       .  A
C639        H644   1.086       .  S
C640        C641   1.411       .  A
C640        C724   1.467       .  S
C641        C642   1.398       .  A
C641        C785   1.468       .  S
C642        H643   1.086       .  S
C645        C646   1.435       .  A
C645        C650   1.409       .  A
C645        C812   1.508       .  S
C646        C647   1.408       .  A
C646        C767   1.502       .  S
C647        C648   1.409       .  A
C647        H652   1.082       .  S
C648        C649   1.436       .  A
C648        C696   1.508       .  S
C649        C650   1.408       .  A
C649        C674   1.504       .  S
C650        H651   1.082       .  S
O653        C669   1.272       .  A
O653       Zn659   1.986       .  S
C654        O670   1.275       .  A
C654        O667   1.275       .  A
O655        C668   1.265       .  A
O655      Cd1486   2.062       .  S
O656        C674   1.279       .  A
O657        C671   1.275       .  A
O657       Cd661   2.086       .  S
O658        C669   1.277       .  A
O658      Cd1485   2.090   1_455  S
Zn659       O670   2.001       .  S
Zn659       O664   1.939       .  S
O660        C671   1.278       .  A
O660       Cd665   2.101       .  S
Cd661      O1482   2.090       .  S
Cd661      O1488   2.004       .  S
Cd662      O1479   2.062       .  S
Cd662       O666   2.062       .  S
Cd662       O675   2.063       .  S
Cd662      O1282   1.974       .  S
O663        C673   1.279       .  A
O664      Cd1485   2.004   1_455  S
O664      Cd1280   1.974   1_556  S
O664      Cd1489   2.008   1_455  S
Cd665      O1491   2.081       .  S
Cd665      O1488   2.008       .  S
O666        C673   1.266       .  A
O667      Cd1489   2.081   1_455  S
C668        O672   1.275       .  A
C671        C821   1.484       .  S
C673        C700   1.504       .  S
C674        O675   1.269       .  A
O676        C692   1.275       .  A
O676       Zn682   2.001       .  S
C677        O693   1.277       .  A
C677        O690   1.274       .  A
O678        C691   1.266       .  A
O678       Cd685   2.065       .  S
O679        C697   1.278       .  A
O679       Cd688   2.082       .  S
O680        C694   1.274       .  A
O680       Cd684   2.081       .  S
O681        C692   1.276       .  A
O681      Cd1508   2.084   1_455  S
Zn682       O693   2.014       .  S
Zn682       O695   2.084       .  S
Zn682       O687   1.942       .  S
O683        C694   1.277       .  A
O683       Cd688   2.096       .  S
Cd684      O1505   2.084       .  S
Cd684       O686   2.081       .  S
Cd684      O1511   2.001       .  S
Cd685      O1513   2.068   1_455  S
Cd685      O1522   2.065   1_455  S
Cd685       O687   1.973       .  S
O686        C696   1.279       .  A
O687      Cd1508   2.001   1_455  S
O687      Cd1512   2.009   1_455  S
Cd688      O1514   2.078       .  S
Cd688      O1511   2.009       .  S
O689        C696   1.266       .  A
O689      Cd1509   2.068       .  S
O690      Cd1512   2.078   1_455  S
C691        O695   1.277       .  A
C694        C824   1.481       .  S
C697        C699   1.501       .  S
C697        O698   1.269       .  A
O698      Cd1509   2.065       .  S
C699        C700   1.435       .  A
C699        C704   1.406       .  A
C700        C701   1.409       .  A
C701        C702   1.409       .  A
C701        H706   1.083       .  S
C702        C703   1.434       .  A
C702        C790   1.505       .  S
C703        C704   1.406       .  A
C703        C743   1.499       .  S
C704        H705   1.084       .  S
C707        C708   1.434       .  A
C707        C712   1.406       .  A
C707        C789   1.499       .  S
C708        C709   1.409       .  A
C708        C744   1.505       .  S
C709        C710   1.410       .  A
C709        H714   1.083       .  S
C710        C711   1.434       .  A
C710        C766   1.504       .  S
C711        C712   1.406       .  A
C711        C813   1.500       .  S
C712        H713   1.084       .  S
C715        C716   1.411       .  A
C715        C720   1.403       .  A
C715        C770   1.468       .  S
C716        C717   1.398       .  A
C716        C739   1.467       .  S
C717        C718   1.397       .  A
C717        H722   1.086       .  S
C718        C719   1.410       .  A
C718        C747   1.468       .  S
C719        C720   1.403       .  A
C719        C808   1.467       .  S
C720        H721   1.086       .  S
O723        C739   1.275       .  A
O723       Zn729   2.004       .  S
C724        O740   1.273       .  A
C724        O737   1.277       .  A
O725        C738   1.267       .  A
O725       Cd732   2.069       .  S
O726        C744   1.279       .  A
O726       Cd735   2.083       .  S
O727        C741   1.276       .  A
O727       Cd731   2.095       .  S
O728        C739   1.274       .  A
Zn729       O740   1.992       .  S
Zn729       O742   2.078       .  S
Zn729       O734   1.938       .  S
O730        C741   1.275       .  A
O730       Cd735   2.087       .  S
Cd731       O733   2.082       .  S
Cd732       O734   1.974       .  S
O733        C743   1.279       .  A
O736        C743   1.269       .  A
C738        O742   1.277       .  A
C741        C822   1.482       .  S
C744        O745   1.267       .  A
O746        C762   1.272       .  A
O746       Zn752   1.987       .  S
C747        O763   1.275       .  A
C747        O760   1.275       .  A
O748        C761   1.266       .  A
O748       Cd755   2.064       .  S
O749        C767   1.279       .  A
O749       Cd758   2.089       .  S
O750        C764   1.275       .  A
O750       Cd754   2.086       .  S
O751        C762   1.277       .  A
O751       Cd754   2.090       .  S
Zn752       O763   2.002       .  S
Zn752       O765   2.066       .  S
Zn752       O757   1.937       .  S
O753        C764   1.278       .  A
O753       Cd758   2.102       .  S
Cd754       O756   2.079       .  S
Cd754       O757   2.002       .  S
Cd755       O759   2.065       .  S
Cd755       O768   2.060       .  S
Cd755       O757   1.975       .  S
O756        C766   1.279       .  A
O757       Cd758   2.007       .  S
Cd758       O760   2.081       .  S
O759        C766   1.267       .  A
C761        O765   1.275       .  A
C764        C823   1.484       .  S
C767        O768   1.268       .  A
O769        C785   1.275       .  A
O769       Zn775   2.005       .  S
C770        O786   1.274       .  A
C770        O783   1.278       .  A
O771        C784   1.266       .  A
O771       Cd778   2.067       .  S
O772        C790   1.279       .  A
O773        C787   1.276       .  A
O773       Cd777   2.095       .  S
O774        C785   1.274       .  A
Zn775       O786   1.993       .  S
Zn775       O780   1.939       .  S
O776        C787   1.276       .  A
O776       Cd781   2.089       .  S
O779        C789   1.278       .  A
O782        C789   1.269       .  A
C784        O788   1.276       .  A
C787        C819   1.483       .  S
C790        O791   1.267       .  A
O792        C808   1.275       .  A
O792       Zn798   2.001       .  S
C793        O809   1.277       .  A
C793        O806   1.274       .  A
O794        C807   1.267       .  A
O794       Cd801   2.067       .  S
O795        C813   1.278       .  A
O796        C810   1.274       .  A
O796       Cd800   2.080       .  S
O797        C808   1.276       .  A
O797       Cd800   2.086       .  S
Zn798       O809   2.017       .  S
Zn798       O803   1.939       .  S
O799        C810   1.277       .  A
O799       Cd804   2.096       .  S
Cd800       O803   2.000       .  S
Cd801       O805   2.071       .  S
Cd801       O814   2.063       .  S
O802        C812   1.279       .  A
O803       Cd804   2.008       .  S
Cd804       O806   2.077       .  S
O805        C812   1.267       .  A
C807        O811   1.278       .  A
C810        C820   1.480       .  S
C813        O814   1.269       .  A
C815        H816   1.111       .  S
C815        C821   1.547       .  S
C815        C820   1.544       .  S
C815        C819   1.545       .  S
C817        H818   1.111       .  S
C817        C823   1.546       .  S
C817        C822   1.545       .  S
C817        C824   1.544       .  S
C819        C822   1.371       .  D
C820        C823   1.370       .  D
C821        C824   1.370       .  D
C825        H826   1.110       .  S
C825        C831   1.549       .  S
C825        C830   1.550       .  S
C825        C829   1.550       .  S
C827        H828   1.110       .  S
C827        C833   1.549       .  S
C827        C832   1.550       .  S
C827        C834   1.550       .  S
C829        C832   1.399       .  D
C829        C944   1.518       .  S
C830        C833   1.398       .  D
C830        C967   1.513       .  S
C831        C834   1.400       .  D
C831        C897   1.519       .  S
C832        C990   1.517       .  S
C833       C1013   1.519       .  S
C834        C874   1.515       .  S
C835        C836   1.410       .  A
C835        C840   1.401       .  A
C835        C875   1.466       .  S
C836        C837   1.400       .  A
C836        C883   1.469       .  S
C837        C838   1.401       .  A
C837        H842   1.086       .  S
C838        C839   1.410       .  A
C838        C968   1.467       .  S
C839        C840   1.400       .  A
C839        C999   1.469       .  S
C840        H841   1.086       .  S
C843        C844   1.410       .  A
C843        C848   1.398       .  A
C843        C860   1.468       .  S
C844        C845   1.402       .  A
C844        C898   1.466       .  S
C845        C846   1.402       .  A
C845        H850   1.086       .  S
C846        C847   1.411       .  A
C846        C930   1.467       .  S
C847        C848   1.398       .  A
C847        C991   1.468       .  S
C848        H849   1.086       .  S
C851        C852   1.435       .  A
C851        C856   1.409       .  A
C851       C1018   1.508       .  S
C852        C853   1.408       .  A
C852        C973   1.502       .  S
C853        C854   1.409       .  A
C853        H858   1.082       .  S
C854        C855   1.436       .  A
C854        C902   1.508       .  S
C855        C856   1.408       .  A
C855        C880   1.504       .  S
C856        H857   1.082       .  S
O859        C875   1.272       .  A
O859       Zn865   1.986       .  S
C860        O876   1.275       .  A
C860        O873   1.275       .  A
O861        C874   1.265       .  A
O862        C880   1.279       .  A
O862      Cd1077   2.089   1_554  S
O863        C877   1.275       .  A
O863       Cd867   2.086       .  S
O864        C875   1.277       .  A
Zn865       O876   2.001       .  S
Zn865      O1084   2.068       .  S
Zn865       O870   1.939       .  S
O866        C877   1.278       .  A
O866       Cd871   2.101       .  S
Cd867      O1075   2.080       .  S
Cd868       O872   2.062   1_455  S
Cd868       O881   2.063   1_455  S
O869        C879   1.279       .  A
O869      Cd1073   2.080   1_554  S
Cd871      O1068   2.089       .  S
O872        C879   1.266       .  A
C874        O878   1.275       .  A
C877       C1027   1.484       .  S
O878      Zn1071   2.068   1_554  S
C879        C906   1.504       .  S
C880        O881   1.269       .  A
O882        C898   1.275       .  A
O882       Zn888   2.001       .  S
C883        O899   1.277       .  A
C883        O896   1.274       .  A
O884        C897   1.266       .  A
O884       Cd891   2.065       .  S
O885        C903   1.278       .  A
O885       Cd894   2.082       .  S
O886        C900   1.274       .  A
O886       Cd890   2.081       .  S
O887        C898   1.276       .  A
Zn888       O899   2.014       .  S
Zn888       O901   2.084       .  S
Zn888       O893   1.942       .  S
O889        C900   1.277       .  A
O889       Cd894   2.096       .  S
Cd890       O892   2.081       .  S
Cd891       O893   1.973       .  S
O892        C902   1.279       .  A
O895        C902   1.266       .  A
C897        O901   1.277       .  A
C900       C1030   1.481       .  S
C903        C905   1.501       .  S
C903        O904   1.269       .  A
C905        C906   1.435       .  A
C905        C910   1.406       .  A
C906        C907   1.409       .  A
C907        C908   1.409       .  A
C907        H912   1.083       .  S
C908        C909   1.434       .  A
C908        C996   1.505       .  S
C909        C910   1.406       .  A
C909        C949   1.499       .  S
C910        H911   1.084       .  S
C913        C914   1.434       .  A
C913        C918   1.406       .  A
C913        C995   1.499       .  S
C914        C915   1.409       .  A
C914        C950   1.505       .  S
C915        C916   1.410       .  A
C915        H920   1.083       .  S
C916        C917   1.434       .  A
C916        C972   1.504       .  S
C917        C918   1.406       .  A
C917       C1019   1.500       .  S
C918        H919   1.084       .  S
C921        C922   1.411       .  A
C921        C926   1.403       .  A
C921        C976   1.468       .  S
C922        C923   1.398       .  A
C922        C945   1.467       .  S
C923        C924   1.397       .  A
C923        H928   1.086       .  S
C924        C925   1.410       .  A
C924        C953   1.468       .  S
C925        C926   1.403       .  A
C925       C1014   1.467       .  S
C926        H927   1.086       .  S
O929        C945   1.275       .  A
O929       Zn935   2.004       .  S
C930        O946   1.273       .  A
C930        O943   1.277       .  A
O931        C944   1.267       .  A
O931       Cd938   2.069       .  S
O932        C950   1.279       .  A
O932       Cd941   2.083       .  S
O933        C947   1.276       .  A
O933       Cd937   2.094       .  S
O934        C945   1.274       .  A
O934      Cd1349   2.075       .  S
Zn935       O946   1.992       .  S
Zn935       O948   2.078       .  S
Zn935       O940   1.938       .  S
O936        C947   1.275       .  A
O936       Cd941   2.087       .  S
Cd937      O1346   2.075   1_545  S
Cd937       O939   2.082       .  S
Cd937      O1352   2.008   1_545  S
Cd938      O1354   2.064       .  S
Cd938      O1363   2.067       .  S
Cd938       O940   1.974       .  S
O939        C949   1.279       .  A
O940      Cd1349   2.008       .  S
O940      Cd1353   2.002       .  S
Cd941      O1355   2.092   1_545  S
Cd941      O1352   2.002   1_545  S
O942        C949   1.269       .  A
O942      Cd1350   2.064   1_545  S
O943      Cd1353   2.092       .  S
C944        O948   1.277       .  A
C947       C1028   1.482       .  S
C950        O951   1.267       .  A
O951      Cd1350   2.067   1_545  S
O952        C968   1.272       .  A
O952       Zn958   1.987       .  S
C953        O969   1.275       .  A
C953        O966   1.275       .  A
O954        C967   1.266       .  A
O954       Cd961   2.064       .  S
O955        C973   1.279       .  A
O955       Cd964   2.089       .  S
O956        C970   1.275       .  A
O956       Cd960   2.086       .  S
O957        C968   1.277       .  A
O957       Cd960   2.090       .  S
Zn958       O969   2.002       .  S
Zn958       O971   2.066       .  S
Zn958       O963   1.937       .  S
O959        C970   1.278       .  A
O959       Cd964   2.102       .  S
Cd960       O962   2.079       .  S
Cd960       O963   2.002       .  S
Cd961       O965   2.065       .  S
Cd961       O974   2.060       .  S
Cd961       O963   1.975       .  S
O962        C972   1.279       .  A
O963       Cd964   2.007       .  S
Cd964       O966   2.081       .  S
O965        C972   1.267       .  A
C967        O971   1.275       .  A
C970       C1029   1.484       .  S
C973        O974   1.268       .  A
O975        C991   1.275       .  A
O975       Zn981   2.005       .  S
C976        O992   1.274       .  A
C976        O989   1.278       .  A
O977        C990   1.266       .  A
O977       Cd984   2.067       .  S
O978        C996   1.279       .  A
O978      Cd1193   2.083   1_554  S
O979        C993   1.276       .  A
O979       Cd983   2.095       .  S
O980        C991   1.274       .  A
O980      Cd1395   2.076       .  S
Zn981       O992   1.993       .  S
Zn981      O1200   2.078       .  S
Zn981       O986   1.939       .  S
O982        C993   1.276       .  A
O982       Cd987   2.089       .  S
Cd983      O1392   2.076   1_545  S
Cd983      O1191   2.081       .  S
Cd983      O1398   2.008   1_545  S
Cd984      O1400   2.063       .  S
Cd984      O1409   2.067       .  S
Cd984      O1192   1.974   1_554  S
O985        C995   1.278       .  A
O985      Cd1189   2.081   1_554  S
O986      Cd1395   2.008       .  S
O986      Cd1190   1.974       .  S
O986      Cd1399   2.003       .  S
Cd987      O1184   2.083       .  S
Cd987      O1401   2.093   1_545  S
Cd987      O1398   2.003   1_545  S
O988        C995   1.269       .  A
O988      Cd1396   2.063   1_545  S
O989      Cd1399   2.093       .  S
C990        O994   1.276       .  A
C993       C1025   1.483       .  S
O994      Zn1187   2.078   1_554  S
C996        O997   1.267       .  A
O997      Cd1396   2.067   1_545  S
O998       C1014   1.275       .  A
O998      Zn1004   2.001       .  S
C999       O1015   1.277       .  A
C999       O1012   1.274       .  A
O1000      C1013   1.267       .  A
O1000     Cd1007   2.067       .  S
O1001      C1019   1.278       .  A
O1001     Cd1216   2.083   1_554  S
O1002      C1016   1.274       .  A
O1002     Cd1006   2.080       .  S
O1003      C1014   1.276       .  A
O1003     Cd1006   2.086       .  S
Zn1004     O1015   2.017       .  S
Zn1004     O1223   2.083       .  S
Zn1004     O1009   1.939       .  S
O1005      C1016   1.277       .  A
O1005     Cd1010   2.096       .  S
Cd1006     O1214   2.079       .  S
Cd1006     O1009   2.000       .  S
Cd1007     O1011   2.071       .  S
Cd1007     O1020   2.063       .  S
Cd1007     O1215   1.974   1_554  S
O1008      C1018   1.279       .  A
O1008     Cd1212   2.079   1_554  S
O1009     Cd1213   1.974       .  S
O1009     Cd1010   2.008       .  S
Cd1010     O1207   2.083       .  S
Cd1010     O1012   2.077       .  S
O1011      C1018   1.267       .  A
C1013      O1017   1.278       .  A
C1016      C1026   1.480       .  S
O1017     Zn1210   2.083   1_554  S
C1019      O1020   1.269       .  A
C1021      H1022   1.111       .  S
C1021      C1027   1.547       .  S
C1021      C1026   1.544       .  S
C1021      C1025   1.545       .  S
C1023      H1024   1.111       .  S
C1023      C1029   1.546       .  S
C1023      C1028   1.545       .  S
C1023      C1030   1.544       .  S
C1025      C1028   1.371       .  D
C1026      C1029   1.370       .  D
C1027      C1030   1.370       .  D
C1031      H1032   1.110       .  S
C1031      C1037   1.549       .  S
C1031      C1036   1.550       .  S
C1031      C1035   1.550       .  S
C1033      H1034   1.110       .  S
C1033      C1039   1.549       .  S
C1033      C1038   1.550       .  S
C1033      C1040   1.550       .  S
C1035      C1038   1.399       .  D
C1035      C1150   1.518       .  S
C1036      C1039   1.398       .  D
C1036      C1173   1.513       .  S
C1037      C1040   1.400       .  D
C1037      C1103   1.519       .  S
C1038      C1196   1.517       .  S
C1039      C1219   1.519       .  S
C1040      C1080   1.515       .  S
C1041      C1042   1.410       .  A
C1041      C1046   1.401       .  A
C1041      C1081   1.466       .  S
C1042      C1043   1.400       .  A
C1042      C1089   1.469       .  S
C1043      C1044   1.401       .  A
C1043      H1048   1.086       .  S
C1044      C1045   1.410       .  A
C1044      C1174   1.467       .  S
C1045      C1046   1.400       .  A
C1045      C1205   1.469       .  S
C1046      H1047   1.086       .  S
C1049      C1050   1.410       .  A
C1049      C1054   1.398       .  A
C1049      C1066   1.468       .  S
C1050      C1051   1.402       .  A
C1050      C1104   1.466       .  S
C1051      C1052   1.402       .  A
C1051      H1056   1.086       .  S
C1052      C1053   1.411       .  A
C1052      C1136   1.467       .  S
C1053      C1054   1.398       .  A
C1053      C1197   1.468       .  S
C1054      H1055   1.086       .  S
C1057      C1058   1.435       .  A
C1057      C1062   1.409       .  A
C1057      C1224   1.508       .  S
C1058      C1059   1.408       .  A
C1058      C1179   1.502       .  S
C1059      C1060   1.409       .  A
C1059      H1064   1.082       .  S
C1060      C1061   1.436       .  A
C1060      C1108   1.508       .  S
C1061      C1062   1.408       .  A
C1061      C1086   1.504       .  S
C1062      H1063   1.082       .  S
O1065      C1081   1.272       .  A
O1065     Zn1071   1.986       .  S
C1066      O1082   1.275       .  A
C1066      O1079   1.275       .  A
O1067      C1080   1.265       .  A
O1068      C1086   1.279       .  A
O1069      C1083   1.275       .  A
O1069     Cd1073   2.086       .  S
O1070      C1081   1.277       .  A
Zn1071     O1082   2.001       .  S
Zn1071     O1076   1.939       .  S
O1072      C1083   1.278       .  A
O1072     Cd1077   2.101       .  S
Cd1074     O1078   2.062   1_455  S
Cd1074     O1087   2.063   1_455  S
O1075      C1085   1.279       .  A
O1078      C1085   1.266       .  A
C1080      O1084   1.275       .  A
C1083      C1233   1.484       .  S
C1085      C1112   1.504       .  S
C1086      O1087   1.269       .  A
O1088      C1104   1.275       .  A
O1088     Zn1094   2.001       .  S
C1089      O1105   1.277       .  A
C1089      O1102   1.274       .  A
O1090      C1103   1.266       .  A
O1090     Cd1097   2.065       .  S
O1091      C1109   1.278       .  A
O1091     Cd1100   2.082       .  S
O1092      C1106   1.274       .  A
O1092     Cd1096   2.081       .  S
O1093      C1104   1.276       .  A
Zn1094     O1105   2.014       .  S
Zn1094     O1107   2.084       .  S
Zn1094     O1099   1.942       .  S
O1095      C1106   1.277       .  A
O1095     Cd1100   2.096       .  S
Cd1096     O1098   2.081       .  S
Cd1097     O1099   1.973       .  S
O1098      C1108   1.279       .  A
O1101      C1108   1.266       .  A
C1103      O1107   1.277       .  A
C1106      C1236   1.481       .  S
C1109      C1111   1.501       .  S
C1109      O1110   1.269       .  A
C1111      C1112   1.435       .  A
C1111      C1116   1.406       .  A
C1112      C1113   1.409       .  A
C1113      C1114   1.409       .  A
C1113      H1118   1.083       .  S
C1114      C1115   1.434       .  A
C1114      C1202   1.505       .  S
C1115      C1116   1.406       .  A
C1115      C1155   1.499       .  S
C1116      H1117   1.084       .  S
C1119      C1120   1.434       .  A
C1119      C1124   1.406       .  A
C1119      C1201   1.499       .  S
C1120      C1121   1.409       .  A
C1120      C1156   1.505       .  S
C1121      C1122   1.410       .  A
C1121      H1126   1.083       .  S
C1122      C1123   1.434       .  A
C1122      C1178   1.504       .  S
C1123      C1124   1.406       .  A
C1123      C1225   1.500       .  S
C1124      H1125   1.084       .  S
C1127      C1128   1.411       .  A
C1127      C1132   1.403       .  A
C1127      C1182   1.468       .  S
C1128      C1129   1.398       .  A
C1128      C1151   1.467       .  S
C1129      C1130   1.397       .  A
C1129      H1134   1.086       .  S
C1130      C1131   1.410       .  A
C1130      C1159   1.468       .  S
C1131      C1132   1.403       .  A
C1131      C1220   1.467       .  S
C1132      H1133   1.086       .  S
O1135      C1151   1.275       .  A
O1135     Zn1141   2.004       .  S
C1136      O1152   1.273       .  A
C1136      O1149   1.277       .  A
O1137      C1150   1.267       .  A
O1137     Cd1144   2.069       .  S
O1138      C1156   1.279       .  A
O1138     Cd1147   2.083       .  S
O1139      C1153   1.276       .  A
O1139     Cd1143   2.095       .  S
O1140      C1151   1.274       .  A
O1140     Cd1555   2.075       .  S
Zn1141     O1152   1.992       .  S
Zn1141     O1154   2.078       .  S
Zn1141     O1146   1.938       .  S
O1142      C1153   1.275       .  A
O1142     Cd1147   2.087       .  S
Cd1143     O1552   2.075   1_545  S
Cd1143     O1145   2.082       .  S
Cd1143     O1558   2.008   1_545  S
Cd1144     O1560   2.064       .  S
Cd1144     O1569   2.067       .  S
Cd1144     O1146   1.974       .  S
O1145      C1155   1.279       .  A
O1146     Cd1555   2.008       .  S
O1146     Cd1559   2.002       .  S
Cd1147     O1561   2.092   1_545  S
Cd1147     O1558   2.002   1_545  S
O1148      C1155   1.269       .  A
O1148     Cd1556   2.064   1_545  S
O1149     Cd1559   2.092       .  S
C1150      O1154   1.277       .  A
C1153      C1234   1.482       .  S
C1156      O1157   1.267       .  A
O1157     Cd1556   2.067   1_545  S
O1158      C1174   1.272       .  A
O1158     Zn1164   1.987       .  S
C1159      O1175   1.275       .  A
C1159      O1172   1.275       .  A
O1160      C1173   1.266       .  A
O1160     Cd1167   2.064       .  S
O1161      C1179   1.279       .  A
O1161     Cd1170   2.089       .  S
O1162      C1176   1.275       .  A
O1162     Cd1166   2.086       .  S
O1163      C1174   1.277       .  A
O1163     Cd1166   2.090       .  S
Zn1164     O1175   2.002       .  S
Zn1164     O1177   2.066       .  S
Zn1164     O1169   1.937       .  S
O1165      C1176   1.278       .  A
O1165     Cd1170   2.102       .  S
Cd1166     O1168   2.079       .  S
Cd1166     O1169   2.002       .  S
Cd1167     O1171   2.065       .  S
Cd1167     O1180   2.060       .  S
Cd1167     O1169   1.975       .  S
O1168      C1178   1.279       .  A
O1169     Cd1170   2.007       .  S
Cd1170     O1172   2.081       .  S
O1171      C1178   1.267       .  A
C1173      O1177   1.275       .  A
C1176      C1235   1.484       .  S
C1179      O1180   1.268       .  A
O1181      C1197   1.275       .  A
O1181     Zn1187   2.005       .  S
C1182      O1198   1.274       .  A
C1182      O1195   1.278       .  A
O1183      C1196   1.266       .  A
O1183     Cd1190   2.067       .  S
O1184      C1202   1.279       .  A
O1185      C1199   1.276       .  A
O1185     Cd1189   2.095       .  S
O1186      C1197   1.274       .  A
O1186     Cd1601   2.076       .  S
Zn1187     O1198   1.993       .  S
Zn1187     O1192   1.939       .  S
O1188      C1199   1.276       .  A
O1188     Cd1193   2.089       .  S
Cd1189     O1598   2.076   1_545  S
Cd1189     O1604   2.008   1_545  S
Cd1190     O1606   2.063       .  S
Cd1190     O1615   2.067       .  S
O1191      C1201   1.278       .  A
O1192     Cd1601   2.008       .  S
O1192     Cd1605   2.003       .  S
Cd1193     O1607   2.093   1_545  S
Cd1193     O1604   2.003   1_545  S
O1194      C1201   1.269       .  A
O1194     Cd1602   2.063   1_545  S
O1195     Cd1605   2.093       .  S
C1196      O1200   1.276       .  A
C1199      C1231   1.483       .  S
C1202      O1203   1.267       .  A
O1203     Cd1602   2.067   1_545  S
O1204      C1220   1.275       .  A
O1204     Zn1210   2.001       .  S
C1205      O1221   1.277       .  A
C1205      O1218   1.274       .  A
O1206      C1219   1.267       .  A
O1206     Cd1213   2.067       .  S
O1207      C1225   1.278       .  A
O1208      C1222   1.274       .  A
O1208     Cd1212   2.080       .  S
O1209      C1220   1.276       .  A
O1209     Cd1212   2.086       .  S
Zn1210     O1221   2.017       .  S
Zn1210     O1215   1.939       .  S
O1211      C1222   1.277       .  A
O1211     Cd1216   2.096       .  S
Cd1212     O1215   2.000       .  S
Cd1213     O1217   2.071       .  S
Cd1213     O1226   2.063       .  S
O1214      C1224   1.279       .  A
O1215     Cd1216   2.008       .  S
Cd1216     O1218   2.077       .  S
O1217      C1224   1.267       .  A
C1219      O1223   1.278       .  A
C1222      C1232   1.480       .  S
C1225      O1226   1.269       .  A
C1227      H1228   1.111       .  S
C1227      C1233   1.547       .  S
C1227      C1232   1.544       .  S
C1227      C1231   1.545       .  S
C1229      H1230   1.111       .  S
C1229      C1235   1.546       .  S
C1229      C1234   1.545       .  S
C1229      C1236   1.544       .  S
C1231      C1234   1.371       .  D
C1232      C1235   1.370       .  D
C1233      C1236   1.370       .  D
C1237      H1238   1.110       .  S
C1237      C1243   1.549       .  S
C1237      C1242   1.550       .  S
C1237      C1241   1.550       .  S
C1239      H1240   1.110       .  S
C1239      C1245   1.549       .  S
C1239      C1244   1.550       .  S
C1239      C1246   1.550       .  S
C1241      C1244   1.399       .  D
C1241      C1356   1.518       .  S
C1242      C1245   1.398       .  D
C1242      C1379   1.513       .  S
C1243      C1246   1.400       .  D
C1243      C1309   1.519       .  S
C1244      C1402   1.517       .  S
C1245      C1425   1.519       .  S
C1246      C1286   1.515       .  S
C1247      C1248   1.410       .  A
C1247      C1252   1.401       .  A
C1247      C1287   1.466       .  S
C1248      C1249   1.400       .  A
C1248      C1295   1.469       .  S
C1249      C1250   1.401       .  A
C1249      H1254   1.086       .  S
C1250      C1251   1.410       .  A
C1250      C1380   1.467       .  S
C1251      C1252   1.400       .  A
C1251      C1411   1.469       .  S
C1252      H1253   1.086       .  S
C1255      C1256   1.410       .  A
C1255      C1260   1.398       .  A
C1255      C1272   1.468       .  S
C1256      C1257   1.402       .  A
C1256      C1310   1.466       .  S
C1257      C1258   1.402       .  A
C1257      H1262   1.086       .  S
C1258      C1259   1.411       .  A
C1258      C1342   1.467       .  S
C1259      C1260   1.398       .  A
C1259      C1403   1.468       .  S
C1260      H1261   1.086       .  S
C1263      C1264   1.435       .  A
C1263      C1268   1.409       .  A
C1263      C1430   1.508       .  S
C1264      C1265   1.408       .  A
C1264      C1385   1.502       .  S
C1265      C1266   1.409       .  A
C1265      H1270   1.082       .  S
C1266      C1267   1.436       .  A
C1266      C1314   1.508       .  S
C1267      C1268   1.408       .  A
C1267      C1292   1.504       .  S
C1268      H1269   1.082       .  S
O1271      C1287   1.272       .  A
O1271     Zn1277   1.986       .  S
C1272      O1288   1.275       .  A
C1272      O1285   1.275       .  A
O1273      C1286   1.265       .  A
O1274      C1292   1.279       .  A
O1274     Cd1489   2.089   1_554  S
O1275      C1289   1.275       .  A
O1275     Cd1279   2.086       .  S
O1276      C1287   1.277       .  A
Zn1277     O1288   2.001       .  S
Zn1277     O1496   2.068       .  S
Zn1277     O1282   1.939       .  S
O1278      C1289   1.278       .  A
O1278     Cd1283   2.101       .  S
Cd1279     O1487   2.080       .  S
Cd1280     O1284   2.062   1_455  S
Cd1280     O1293   2.063   1_455  S
O1281      C1291   1.279       .  A
O1281     Cd1485   2.080   1_554  S
Cd1283     O1480   2.089       .  S
O1284      C1291   1.266       .  A
C1286      O1290   1.275       .  A
C1289      C1439   1.484       .  S
O1290     Zn1483   2.068   1_554  S
C1291      C1318   1.504       .  S
C1292      O1293   1.269       .  A
O1294      C1310   1.275       .  A
O1294     Zn1300   2.001       .  S
C1295      O1311   1.277       .  A
C1295      O1308   1.274       .  A
O1296      C1309   1.266       .  A
O1296     Cd1303   2.065       .  S
O1297      C1315   1.278       .  A
O1297     Cd1306   2.082       .  S
O1298      C1312   1.274       .  A
O1298     Cd1302   2.081       .  S
O1299      C1310   1.276       .  A
Zn1300     O1311   2.014       .  S
Zn1300     O1313   2.084       .  S
Zn1300     O1305   1.942       .  S
O1301      C1312   1.277       .  A
O1301     Cd1306   2.096       .  S
Cd1302     O1304   2.081       .  S
Cd1303     O1305   1.973       .  S
O1304      C1314   1.279       .  A
O1307      C1314   1.266       .  A
C1309      O1313   1.277       .  A
C1312      C1442   1.481       .  S
C1315      C1317   1.501       .  S
C1315      O1316   1.269       .  A
C1317      C1318   1.435       .  A
C1317      C1322   1.406       .  A
C1318      C1319   1.409       .  A
C1319      C1320   1.409       .  A
C1319      H1324   1.083       .  S
C1320      C1321   1.434       .  A
C1320      C1408   1.505       .  S
C1321      C1322   1.406       .  A
C1321      C1361   1.499       .  S
C1322      H1323   1.084       .  S
C1325      C1326   1.434       .  A
C1325      C1330   1.406       .  A
C1325      C1407   1.499       .  S
C1326      C1327   1.409       .  A
C1326      C1362   1.505       .  S
C1327      C1328   1.410       .  A
C1327      H1332   1.083       .  S
C1328      C1329   1.434       .  A
C1328      C1384   1.504       .  S
C1329      C1330   1.406       .  A
C1329      C1431   1.500       .  S
C1330      H1331   1.084       .  S
C1333      C1334   1.411       .  A
C1333      C1338   1.403       .  A
C1333      C1388   1.468       .  S
C1334      C1335   1.398       .  A
C1334      C1357   1.467       .  S
C1335      C1336   1.397       .  A
C1335      H1340   1.086       .  S
C1336      C1337   1.410       .  A
C1336      C1365   1.468       .  S
C1337      C1338   1.403       .  A
C1337      C1426   1.467       .  S
C1338      H1339   1.086       .  S
O1341      C1357   1.275       .  A
O1341     Zn1347   2.004       .  S
C1342      O1358   1.273       .  A
C1342      O1355   1.277       .  A
O1343      C1356   1.267       .  A
O1343     Cd1350   2.069       .  S
O1344      C1362   1.279       .  A
O1344     Cd1353   2.083       .  S
O1345      C1359   1.276       .  A
O1345     Cd1349   2.095       .  S
O1346      C1357   1.274       .  A
Zn1347     O1358   1.992       .  S
Zn1347     O1360   2.078       .  S
Zn1347     O1352   1.938       .  S
O1348      C1359   1.275       .  A
O1348     Cd1353   2.087       .  S
Cd1349     O1351   2.082       .  S
Cd1350     O1352   1.974       .  S
O1351      C1361   1.279       .  A
O1354      C1361   1.269       .  A
C1356      O1360   1.277       .  A
C1359      C1440   1.482       .  S
C1362      O1363   1.267       .  A
O1364      C1380   1.272       .  A
O1364     Zn1370   1.987       .  S
C1365      O1381   1.275       .  A
C1365      O1378   1.275       .  A
O1366      C1379   1.266       .  A
O1366     Cd1373   2.064       .  S
O1367      C1385   1.279       .  A
O1367     Cd1376   2.089       .  S
O1368      C1382   1.275       .  A
O1368     Cd1372   2.086       .  S
O1369      C1380   1.277       .  A
O1369     Cd1372   2.090       .  S
Zn1370     O1381   2.002       .  S
Zn1370     O1383   2.066       .  S
Zn1370     O1375   1.937       .  S
O1371      C1382   1.278       .  A
O1371     Cd1376   2.102       .  S
Cd1372     O1374   2.079       .  S
Cd1372     O1375   2.002       .  S
Cd1373     O1377   2.065       .  S
Cd1373     O1386   2.060       .  S
Cd1373     O1375   1.975       .  S
O1374      C1384   1.279       .  A
O1375     Cd1376   2.007       .  S
Cd1376     O1378   2.081       .  S
O1377      C1384   1.267       .  A
C1379      O1383   1.275       .  A
C1382      C1441   1.484       .  S
C1385      O1386   1.268       .  A
O1387      C1403   1.275       .  A
O1387     Zn1393   2.005       .  S
C1388      O1404   1.274       .  A
C1388      O1401   1.278       .  A
O1389      C1402   1.266       .  A
O1389     Cd1396   2.067       .  S
O1390      C1408   1.279       .  A
O1390     Cd1605   2.083   1_554  S
O1391      C1405   1.276       .  A
O1391     Cd1395   2.095       .  S
O1392      C1403   1.274       .  A
Zn1393     O1404   1.993       .  S
Zn1393     O1612   2.078       .  S
Zn1393     O1398   1.939       .  S
O1394      C1405   1.276       .  A
O1394     Cd1399   2.089       .  S
Cd1395     O1603   2.081       .  S
Cd1396     O1604   1.975   1_554  S
O1397      C1407   1.278       .  A
O1397     Cd1601   2.081   1_554  S
O1398     Cd1602   1.974       .  S
Cd1399     O1596   2.083       .  S
O1400      C1407   1.269       .  A
C1402      O1406   1.276       .  A
C1405      C1437   1.483       .  S
O1406     Zn1599   2.078   1_554  S
C1408      O1409   1.267       .  A
O1410      C1426   1.275       .  A
O1410     Zn1416   2.001       .  S
C1411      O1427   1.277       .  A
C1411      O1424   1.274       .  A
O1412      C1425   1.267       .  A
O1412     Cd1419   2.067       .  S
O1413      C1431   1.278       .  A
O1413     Cd1628   2.083   1_554  S
O1414      C1428   1.274       .  A
O1414     Cd1418   2.080       .  S
O1415      C1426   1.276       .  A
O1415     Cd1418   2.086       .  S
Zn1416     O1427   2.017       .  S
Zn1416     O1635   2.083       .  S
Zn1416     O1421   1.939       .  S
O1417      C1428   1.277       .  A
O1417     Cd1422   2.096       .  S
Cd1418     O1626   2.079       .  S
Cd1418     O1421   2.000       .  S
Cd1419     O1423   2.071       .  S
Cd1419     O1432   2.063       .  S
Cd1419     O1627   1.974   1_554  S
O1420      C1430   1.279       .  A
O1420     Cd1624   2.079   1_554  S
O1421     Cd1625   1.974       .  S
O1421     Cd1422   2.008       .  S
Cd1422     O1619   2.083       .  S
Cd1422     O1424   2.077       .  S
O1423      C1430   1.267       .  A
C1425      O1429   1.278       .  A
C1428      C1438   1.480       .  S
O1429     Zn1622   2.083   1_554  S
C1431      O1432   1.269       .  A
C1433      H1434   1.111       .  S
C1433      C1439   1.547       .  S
C1433      C1438   1.544       .  S
C1433      C1437   1.545       .  S
C1435      H1436   1.111       .  S
C1435      C1441   1.546       .  S
C1435      C1440   1.545       .  S
C1435      C1442   1.544       .  S
C1437      C1440   1.371       .  D
C1438      C1441   1.370       .  D
C1439      C1442   1.370       .  D
C1443      H1444   1.110       .  S
C1443      C1449   1.549       .  S
C1443      C1448   1.550       .  S
C1443      C1447   1.550       .  S
C1445      H1446   1.110       .  S
C1445      C1451   1.549       .  S
C1445      C1450   1.550       .  S
C1445      C1452   1.550       .  S
C1447      C1450   1.399       .  D
C1447      C1562   1.518       .  S
C1448      C1451   1.398       .  D
C1448      C1585   1.513       .  S
C1449      C1452   1.400       .  D
C1449      C1515   1.519       .  S
C1450      C1608   1.517       .  S
C1451      C1631   1.519       .  S
C1452      C1492   1.515       .  S
C1453      C1454   1.410       .  A
C1453      C1458   1.401       .  A
C1453      C1493   1.466       .  S
C1454      C1455   1.400       .  A
C1454      C1501   1.469       .  S
C1455      C1456   1.401       .  A
C1455      H1460   1.086       .  S
C1456      C1457   1.410       .  A
C1456      C1586   1.467       .  S
C1457      C1458   1.400       .  A
C1457      C1617   1.469       .  S
C1458      H1459   1.086       .  S
C1461      C1462   1.410       .  A
C1461      C1466   1.398       .  A
C1461      C1478   1.468       .  S
C1462      C1463   1.402       .  A
C1462      C1516   1.466       .  S
C1463      C1464   1.402       .  A
C1463      H1468   1.086       .  S
C1464      C1465   1.411       .  A
C1464      C1548   1.467       .  S
C1465      C1466   1.398       .  A
C1465      C1609   1.468       .  S
C1466      H1467   1.086       .  S
C1469      C1470   1.435       .  A
C1469      C1474   1.409       .  A
C1469      C1636   1.508       .  S
C1470      C1471   1.408       .  A
C1470      C1591   1.502       .  S
C1471      C1472   1.409       .  A
C1471      H1476   1.082       .  S
C1472      C1473   1.436       .  A
C1472      C1520   1.508       .  S
C1473      C1474   1.408       .  A
C1473      C1498   1.504       .  S
C1474      H1475   1.082       .  S
O1477      C1493   1.272       .  A
O1477     Zn1483   1.986       .  S
C1478      O1494   1.275       .  A
C1478      O1491   1.275       .  A
O1479      C1492   1.265       .  A
O1480      C1498   1.279       .  A
O1481      C1495   1.275       .  A
O1481     Cd1485   2.086       .  S
O1482      C1493   1.277       .  A
Zn1483     O1494   2.001       .  S
Zn1483     O1488   1.939       .  S
O1484      C1495   1.278       .  A
O1484     Cd1489   2.101       .  S
Cd1486     O1490   2.062   1_455  S
Cd1486     O1499   2.063   1_455  S
O1487      C1497   1.279       .  A
O1490      C1497   1.266       .  A
C1492      O1496   1.275       .  A
C1495      C1645   1.484       .  S
C1497      C1524   1.504       .  S
C1498      O1499   1.269       .  A
O1500      C1516   1.275       .  A
O1500     Zn1506   2.001       .  S
C1501      O1517   1.277       .  A
C1501      O1514   1.274       .  A
O1502      C1515   1.266       .  A
O1502     Cd1509   2.065       .  S
O1503      C1521   1.278       .  A
O1503     Cd1512   2.082       .  S
O1504      C1518   1.274       .  A
O1504     Cd1508   2.081       .  S
O1505      C1516   1.276       .  A
Zn1506     O1517   2.014       .  S
Zn1506     O1519   2.084       .  S
Zn1506     O1511   1.942       .  S
O1507      C1518   1.277       .  A
O1507     Cd1512   2.096       .  S
Cd1508     O1510   2.081       .  S
Cd1509     O1511   1.973       .  S
O1510      C1520   1.279       .  A
O1513      C1520   1.266       .  A
C1515      O1519   1.277       .  A
C1518      C1648   1.481       .  S
C1521      C1523   1.501       .  S
C1521      O1522   1.269       .  A
C1523      C1524   1.435       .  A
C1523      C1528   1.406       .  A
C1524      C1525   1.409       .  A
C1525      C1526   1.409       .  A
C1525      H1530   1.083       .  S
C1526      C1527   1.434       .  A
C1526      C1614   1.505       .  S
C1527      C1528   1.406       .  A
C1527      C1567   1.499       .  S
C1528      H1529   1.084       .  S
C1531      C1532   1.434       .  A
C1531      C1536   1.406       .  A
C1531      C1613   1.499       .  S
C1532      C1533   1.409       .  A
C1532      C1568   1.505       .  S
C1533      C1534   1.410       .  A
C1533      H1538   1.083       .  S
C1534      C1535   1.434       .  A
C1534      C1590   1.504       .  S
C1535      C1536   1.406       .  A
C1535      C1637   1.500       .  S
C1536      H1537   1.084       .  S
C1539      C1540   1.411       .  A
C1539      C1544   1.403       .  A
C1539      C1594   1.468       .  S
C1540      C1541   1.398       .  A
C1540      C1563   1.467       .  S
C1541      C1542   1.397       .  A
C1541      H1546   1.086       .  S
C1542      C1543   1.410       .  A
C1542      C1571   1.468       .  S
C1543      C1544   1.403       .  A
C1543      C1632   1.467       .  S
C1544      H1545   1.086       .  S
O1547      C1563   1.275       .  A
O1547     Zn1553   2.004       .  S
C1548      O1564   1.273       .  A
C1548      O1561   1.277       .  A
O1549      C1562   1.267       .  A
O1549     Cd1556   2.069       .  S
O1550      C1568   1.279       .  A
O1550     Cd1559   2.083       .  S
O1551      C1565   1.276       .  A
O1551     Cd1555   2.094       .  S
O1552      C1563   1.274       .  A
Zn1553     O1564   1.992       .  S
Zn1553     O1566   2.078       .  S
Zn1553     O1558   1.938       .  S
O1554      C1565   1.275       .  A
O1554     Cd1559   2.087       .  S
Cd1555     O1557   2.082       .  S
Cd1556     O1558   1.974       .  S
O1557      C1567   1.279       .  A
O1560      C1567   1.269       .  A
C1562      O1566   1.277       .  A
C1565      C1646   1.482       .  S
C1568      O1569   1.267       .  A
O1570      C1586   1.272       .  A
O1570     Zn1576   1.987       .  S
C1571      O1587   1.275       .  A
C1571      O1584   1.275       .  A
O1572      C1585   1.266       .  A
O1572     Cd1579   2.064       .  S
O1573      C1591   1.279       .  A
O1573     Cd1582   2.089       .  S
O1574      C1588   1.275       .  A
O1574     Cd1578   2.086       .  S
O1575      C1586   1.277       .  A
O1575     Cd1578   2.090       .  S
Zn1576     O1587   2.002       .  S
Zn1576     O1589   2.066       .  S
Zn1576     O1581   1.937       .  S
O1577      C1588   1.278       .  A
O1577     Cd1582   2.102       .  S
Cd1578     O1580   2.079       .  S
Cd1578     O1581   2.002       .  S
Cd1579     O1583   2.065       .  S
Cd1579     O1592   2.060       .  S
Cd1579     O1581   1.975       .  S
O1580      C1590   1.279       .  A
O1581     Cd1582   2.007       .  S
Cd1582     O1584   2.081       .  S
O1583      C1590   1.267       .  A
C1585      O1589   1.275       .  A
C1588      C1647   1.484       .  S
C1591      O1592   1.268       .  A
O1593      C1609   1.275       .  A
O1593     Zn1599   2.005       .  S
C1594      O1610   1.274       .  A
C1594      O1607   1.278       .  A
O1595      C1608   1.266       .  A
O1595     Cd1602   2.067       .  S
O1596      C1614   1.279       .  A
O1597      C1611   1.276       .  A
O1597     Cd1601   2.095       .  S
O1598      C1609   1.274       .  A
Zn1599     O1610   1.993       .  S
Zn1599     O1604   1.939       .  S
O1600      C1611   1.276       .  A
O1600     Cd1605   2.089       .  S
O1603      C1613   1.278       .  A
O1606      C1613   1.269       .  A
C1608      O1612   1.276       .  A
C1611      C1643   1.483       .  S
C1614      O1615   1.267       .  A
O1616      C1632   1.275       .  A
O1616     Zn1622   2.001       .  S
C1617      O1633   1.277       .  A
C1617      O1630   1.274       .  A
O1618      C1631   1.267       .  A
O1618     Cd1625   2.067       .  S
O1619      C1637   1.278       .  A
O1620      C1634   1.274       .  A
O1620     Cd1624   2.080       .  S
O1621      C1632   1.276       .  A
O1621     Cd1624   2.086       .  S
Zn1622     O1633   2.017       .  S
Zn1622     O1627   1.939       .  S
O1623      C1634   1.277       .  A
O1623     Cd1628   2.096       .  S
Cd1624     O1627   2.000       .  S
Cd1625     O1629   2.071       .  S
Cd1625     O1638   2.063       .  S
O1626      C1636   1.279       .  A
O1627     Cd1628   2.008       .  S
Cd1628     O1630   2.077       .  S
O1629      C1636   1.267       .  A
C1631      O1635   1.278       .  A
C1634      C1644   1.480       .  S
C1637      O1638   1.269       .  A
C1639      H1640   1.111       .  S
C1639      C1645   1.547       .  S
C1639      C1644   1.544       .  S
C1639      C1643   1.545       .  S
C1641      H1642   1.111       .  S
C1641      C1647   1.546       .  S
C1641      C1646   1.545       .  S
C1641      C1648   1.544       .  S
C1643      C1646   1.371       .  D
C1644      C1647   1.370       .  D
C1645      C1648   1.370       .  D
