geometry optimzed in LAMMPS
_audit_creation_date              2020-11-30 
_audit_creation_method            'lammps2cif' 
_symmetry_space_group_name_H-M    'P1' 
_symmetry_Int_Tables_number       1 
_symmetry_cell_setting            triclinic 
loop_ 
_symmetry_equiv_pos_as_xyz 
  x,y,z 
_cell_length_a                    26.77026511 
_cell_length_b                    28.09533951196316 
_cell_length_c                    27.739731649260843 
_cell_angle_alpha                 88.9736249889943 
_cell_angle_beta                  90.78600580465907 
_cell_angle_gamma                 89.17649906301462 
loop_ 
_atom_site_label 
_atom_site_type_symbol 
_atom_site_fract_x 
_atom_site_fract_y 
_atom_site_fract_z 
_atom_site_charge 
O1          O  0.92354205  0.04467563  0.09170715    -0.81900
O2          O  0.03130105  0.88562273  0.98506840    -0.66600
O3          O  0.99871375  0.00509298  0.03841941    -1.13200
C4          C  0.90226238  0.02898113  0.89367484     1.05000
O5          O  0.04901653  0.92387901  0.91527555    -0.79800
O6          O  0.03093432  0.01812291  0.89685617    -0.67300
Ni7        Ni  0.98852844  0.01583399  0.10412825     1.34900
C8          C  0.02677472  0.05554219  0.92154232     0.83800
O9          O  0.05137789  0.92153499  0.07661908    -0.80300
O10         O  0.05290667  0.98850933  0.11903485    -0.90600
C11         C  0.05779950  0.89104317  0.94671156     0.83300
O12         O  0.96074236  0.95501411  0.11812921    -0.68800
O13         O  0.93328491  0.99911448  0.87600293    -0.88100
C14         C  0.93481369  0.92894985  0.09102245     0.84200
C15         C  0.06427996  0.94457437  0.11480638     1.05700
H16         H  0.93956906  0.94361298  0.96406858     0.37500
O17         O  0.96889022  0.96326225  0.96374521    -1.10700
O18         O  0.99754071  0.05908777  0.95687876    -0.67400
Ni19       Ni  0.94928614  0.02238229  0.98966972     1.26300
O20         O  0.94978155  0.91784527  0.04852858    -0.67600
O21         O  0.90178203  0.03921460  0.93844431    -0.79900
C22         C  0.91767774  0.08072505  0.06356894     0.83500
O23         O  0.93126786  0.07970156  0.02015501    -0.67100
Ni24       Ni  0.99069553  0.96180895  0.89852377     1.27400
Ni25       Ni  0.01160380  0.94253701  0.01780141     1.26100
H26         H  0.02859441  0.02257512  0.03120747     0.38100
C27         C  0.16459515  0.34750054  0.17808632     0.79300
N28         N  0.14795467  0.36827581  0.13528415    -0.79100
C29         C  0.09797085  0.38093455  0.12902250     0.81700
N30         N  0.06682141  0.37490023  0.16650062    -0.79000
C31         C  0.08384450  0.35676211  0.20963093     0.81800
N32         N  0.13215713  0.34278930  0.21458500    -0.80700
C33         C  0.84175453  0.17590929  0.11834356     0.79300
N34         N  0.87722349  0.20869007  0.12399003    -0.79100
C35         C  0.92502630  0.19999604  0.11250912     0.81700
N36         N  0.93714494  0.15866587  0.09115050    -0.79000
C37         C  0.90147722  0.12607257  0.08264761     0.81800
N38         N  0.85421592  0.13335476  0.09889932    -0.80700
C39         C  0.87111419  0.17105208  0.36047098     0.79300
N40         N  0.89740063  0.12787328  0.36497903    -0.79100
C41         C  0.93249089  0.12153769  0.40239644     0.81700
N42         N  0.94208389  0.15838867  0.43113224    -0.79000
C43         C  0.91805334  0.20062216  0.42594605     0.81800
N44         N  0.88373217  0.20636341  0.39000459    -0.80700
C45         C  0.65064833  0.09579685  0.57982109     0.79300
N46         N  0.68705659  0.10425859  0.54710601    -0.79100
C47         C  0.71830009  0.14137115  0.55384891     0.81700
N48         N  0.71259252  0.17028020  0.59196813    -0.79000
C49         C  0.67652004  0.16273234  0.62436286     0.81800
N50         N  0.64620300  0.12466990  0.61885646    -0.80700
O51         O  0.67020333  0.31663944  0.30890634    -0.81900
O52         O  0.76265754  0.19819782  0.14892123    -0.66600
O53         O  0.70264166  0.23328818  0.26720491    -1.13200
C54         C  0.85973842  0.31257650  0.29356741     1.05000
O55         O  0.82271753  0.17593033  0.19828911    -0.79800
O56         O  0.86450681  0.19714694  0.28126339    -0.67300
Ni57       Ni  0.64233388  0.27128570  0.26412944     1.34900
C58         C  0.83946969  0.18878516  0.31832123     0.83800
O59         O  0.67071939  0.18188187  0.18569213    -0.80300
O60         O  0.61140776  0.22632676  0.22137717    -0.90600
C61         C  0.80515004  0.17870028  0.15581787     0.83300
O62         O  0.64850674  0.31512887  0.20853814    -0.68800
O63         O  0.87512597  0.29055413  0.25577924    -0.88100
C64         C  0.67162331  0.30606736  0.16987983     0.84200
C65         C  0.62480169  0.19276480  0.19323702     1.05700
H66         H  0.78298933  0.28548925  0.21380016     0.37500
O67         O  0.78455729  0.25502824  0.23052669    -1.10700
O68         O  0.79469539  0.20681937  0.32347657    -0.67400
Ni69       Ni  0.76113768  0.26513182  0.29313762     1.26300
O70         O  0.70275589  0.27102008  0.16864951    -0.67600
O71         O  0.81873034  0.30194162  0.31450426    -0.79900
C72         C  0.68969192  0.30505910  0.35009417     0.83500
O73         O  0.72834168  0.27794132  0.35264862    -0.67100
Ni74       Ni  0.85031149  0.23282740  0.22446926     1.27400
Ni75       Ni  0.72910001  0.21708353  0.20653475     1.26100
H76         H  0.69676977  0.20455013  0.28581743     0.38100
C77         C  0.83921683  0.66996251  0.63883325     0.79300
N78         N  0.87459963  0.63841885  0.62163798    -0.79100
C79         C  0.87482335  0.62824105  0.57273141     0.81700
N80         N  0.83908739  0.64845567  0.54303885    -0.79000
C81         C  0.80458878  0.67904088  0.56093915     0.81800
N82         N  0.80556461  0.68934810  0.60784556    -0.80700
C83         C  0.60671756  0.65622155  0.35411421     0.79300
N84         N  0.58648725  0.61111363  0.35943972    -0.79100
C85         C  0.55530958  0.60142263  0.39866343     0.81700
N86         N  0.55031417  0.63469473  0.43334096    -0.79000
C87         C  0.57081961  0.67814916  0.42845786     0.81800
N88         N  0.59533151  0.68835573  0.38784447    -0.80700
O89         O  0.91343000  0.40546708  0.52779982    -0.81900
O90         O  0.05823263  0.52065097  0.41233493    -0.66600
O91         O  0.00106638  0.45210546  0.51685740    -1.13200
C92         C  0.91318509  0.59627217  0.55004870     1.05000
O93         O  0.06986821  0.58816041  0.45240826    -0.79800
O94         O  0.04567167  0.58264107  0.54912061    -0.67300
Ni95       Ni  0.98090136  0.38861968  0.51064195     1.34900
C96         C  0.02920489  0.55895369  0.58463108     0.83800
O97         O  0.07523587  0.43098141  0.44561302    -0.80300
O98         O  0.04700233  0.36952743  0.48994040    -0.90600
C99         C  0.07990090  0.56074154  0.41731592     0.83300
O100        O  0.95849227  0.38499368  0.44540386    -0.68800
O101        O  0.95113470  0.61566597  0.53021339    -0.88100
C102        C  0.95891897  0.41563760  0.41167918     0.84200
C103        C  0.07744593  0.38707956  0.45917733     1.05700
H104        H  0.95830856  0.53756673  0.45460995     0.37500
O105        O  0.98303152  0.53393545  0.48017162    -1.10700
O106        O  0.99606620  0.52642483  0.58086823    -0.67400
Ni107      Ni  0.95177292  0.50045397  0.53284313     1.26300
O108        O  0.98040158  0.45647434  0.41619653    -0.67600
O109        O  0.90526030  0.55148790  0.54800472    -0.79900
C110        C  0.89721421  0.42268523  0.56687246     0.83500
O111        O  0.91735740  0.46078676  0.58232201    -0.67100
Ni112      Ni  0.00905203  0.59701590  0.49120496     1.27400
Ni113      Ni  0.02910357  0.48312750  0.46259549     1.26100
H114        H  0.02644266  0.45151457  0.54197730     0.38100
C115        C  0.38007196  0.87602704  0.08546624     0.79300
N116        N  0.36860128  0.87297157  0.13332136    -0.79100
C117        C  0.33283786  0.84225774  0.14826320     0.81700
N118        N  0.30799281  0.81629015  0.11554189    -0.79000
C119        C  0.31873985  0.81877535  0.06797044     0.81800
N120        N  0.35557246  0.84847844  0.05330061    -0.80700
C121        C  0.56330076  0.61824757  0.05624692     0.79300
N122        N  0.51764416  0.63827320  0.05652901    -0.79100
C123        C  0.50643748  0.67385374  0.08613515     0.81700
N124        N  0.54233566  0.69161105  0.11585319    -0.79000
C125        C  0.58954013  0.67227191  0.11586110     0.81800
N126        N  0.59993295  0.63488611  0.08610873    -0.80700
C127        C  0.21371609  0.12029023  0.35913862     0.79300
N128        N  0.16384888  0.11583757  0.36977622    -0.79100
C129        C  0.14939386  0.07673640  0.39630506     0.81700
N130        N  0.18356337  0.04348058  0.40996260    -0.79000
C131        C  0.23135044  0.04476318  0.39532561     0.81800
N132        N  0.24615241  0.08400690  0.37080554    -0.80700
C133        C  0.08531770  0.92059312  0.16015320     0.79300
N134        N  0.08132466  0.94490745  0.20228287    -0.79100
C135        C  0.08843392  0.92200409  0.24558738     0.81700
N136        N  0.09764095  0.87507953  0.24623579    -0.79000
C137        C  0.11464984  0.85391495  0.20674826     0.81800
N138        N  0.10721626  0.87599438  0.16228470    -0.80700
O139        O  0.33304202  0.66531988  0.30206968    -0.81900
O140        O  0.15772076  0.78850807  0.24452420    -0.66600
O141        O  0.27634272  0.71541029  0.24270035    -1.13200
C142        C  0.34151826  0.84631165  0.33209272     1.05000
O143        O  0.20175296  0.84924570  0.21800065    -0.79800
O144        O  0.30062927  0.86489736  0.22276492    -0.67300
Ni145      Ni  0.27839737  0.65098009  0.26093735     1.34900
C146        C  0.32203264  0.83275411  0.19918907     0.83800
O147        O  0.18403778  0.70774319  0.20480630    -0.80300
O148        O  0.22064757  0.63581600  0.21890406    -0.90600
C149        C  0.16046135  0.82698714  0.21999098     0.83300
O150        O  0.24135678  0.65504739  0.31850771    -0.68800
O151        O  0.30061248  0.86875289  0.32111091    -0.88100
C152        C  0.19736102  0.67032837  0.32097181     0.84200
C153        C  0.18823964  0.66338280  0.19734494     1.05700
H154        H  0.24380258  0.78620661  0.32006607     0.37500
O155        O  0.25346192  0.79075461  0.28687599    -1.10700
O156        O  0.32863179  0.79058148  0.21570557    -0.67400
Ni157      Ni  0.31643798  0.75995597  0.27730249     1.26300
O158        O  0.18431874  0.70986848  0.29953636    -0.67600
O159        O  0.35435420  0.80683279  0.31277798    -0.79900
C160        C  0.37455625  0.68127264  0.28818922     0.83500
O161        O  0.37678581  0.72268654  0.26936823    -0.67100
Ni162      Ni  0.25072320  0.85752909  0.27075479     1.27400
Ni163      Ni  0.21571011  0.74883757  0.24695575     1.26100
H164        H  0.28575376  0.71624586  0.20919402     0.38100
O165        O  0.35268509  0.17731418  0.19409409    -0.81900
O166        O  0.25377378  0.29424185  0.35616571    -0.66600
O167        O  0.27382318  0.22115563  0.24411563    -1.13200
C168        C  0.35533482  0.36080689  0.19151984     1.05000
O169        O  0.22487166  0.35797159  0.31543833    -0.79800
O170        O  0.23768341  0.37042693  0.21699637    -0.67300
Ni171      Ni  0.30530363  0.16029815  0.24361624     1.34900
C172        C  0.21794831  0.33802266  0.19197818     0.83800
O173        O  0.23017795  0.20158864  0.33342969    -0.80300
O174        O  0.26016328  0.13883951  0.29205018    -0.90600
C175        C  0.22183183  0.32840761  0.35124167     0.83300
O176        O  0.35498553  0.16901955  0.29239748    -0.68800
O177        O  0.33967422  0.38114331  0.22989317    -0.88100
C178        C  0.35868667  0.19601262  0.32843841     0.84200
C179        C  0.23386661  0.15662550  0.32558591     1.05700
H180        H  0.33570800  0.30153942  0.28244211     0.37500
O181        O  0.30195364  0.30257664  0.26964649    -1.10700
O182        O  0.23823861  0.29641357  0.18784890    -0.67400
Ni183      Ni  0.30455670  0.27158366  0.20927833     1.26300
O184        O  0.32814931  0.23083091  0.33549465    -0.67600
O185        O  0.33694065  0.32255121  0.17559576    -0.79900
C186        C  0.33872353  0.19595104  0.15397140     0.83500
O187        O  0.31095503  0.23355292  0.15291914    -0.67100
Ni188      Ni  0.28265277  0.36799154  0.27169663     1.27400
Ni189      Ni  0.26606258  0.25390998  0.30274409     1.26100
H190        H  0.24073301  0.21695781  0.23063693     0.38100
C191        C  0.67108153  0.83440072  0.68902493     0.79300
N192        N  0.65693280  0.87958349  0.67315002    -0.79100
C193        C  0.62049623  0.88514786  0.63807370     0.81700
N194        N  0.59814348  0.84641004  0.62146450    -0.79000
C195        C  0.60992348  0.80240694  0.63824733     0.81800
N196        N  0.64654372  0.79602465  0.67204171    -0.80700
C197        C  0.35758093  0.60817127  0.54932520     0.79300
N198        N  0.32397495  0.61056129  0.58618810    -0.79100
C199        C  0.30655211  0.65447343  0.60022344     0.81700
N200        N  0.32837044  0.69412058  0.58253915    -0.79000
C201        C  0.36477480  0.69126497  0.54944835     0.81800
N202        N  0.37622821  0.64880948  0.53093487    -0.80700
O203        O  0.56928275  0.93518562  0.42712162    -0.81900
O204        O  0.43042064  0.03657191  0.54865311    -0.66600
O205        O  0.54330686  0.01360897  0.47102169    -1.13200
C206        C  0.60271070  0.93048170  0.61469391     1.05000
O207        O  0.48659366  0.06498016  0.59804209    -0.79800
O208        O  0.58458774  0.05075960  0.60769626    -0.67300
Ni209      Ni  0.53606081  0.99359819  0.40704668     1.34900
C210        C  0.61584707  0.05574757  0.57437257     0.83800
O211        O  0.45148491  0.06008041  0.45578976    -0.80300
O212        O  0.50031634  0.05215682  0.39035067    -0.90600
C213        C  0.44099536  0.05775012  0.58776017     0.83300
O214        O  0.47420172  0.96186743  0.40652727    -0.68800
O215        O  0.57273952  0.95782064  0.63780210    -0.88100
C216        C  0.44726118  0.94858635  0.44088792     0.84200
C217        C  0.46531448  0.07305931  0.41359148     1.05700
H218        H  0.50426067  0.95618179  0.55936792     0.37500
O219        O  0.52126618  0.98603826  0.55506954    -1.10700
O220        O  0.61740548  0.02868888  0.53777838    -0.67400
Ni221      Ni  0.57877218  0.97342602  0.51825438     1.26300
O222        O  0.45158494  0.96567715  0.48347400    -0.67600
O223        O  0.61024841  0.93451221  0.56902056    -0.79900
C224        C  0.61594923  0.93701570  0.43523561     0.83500
O225        O  0.63123237  0.95643448  0.47389913    -0.67100
Ni226      Ni  0.52902801  0.01128950  0.61762527     1.27400
Ni227      Ni  0.48486110  0.02326228  0.50633504     1.26100
H228        H  0.55997408  0.04385300  0.46919583     0.38100
C229        C  0.39029166  0.35332936  0.57085083     0.79300
N230        N  0.37401310  0.31974363  0.53939508    -0.79100
C231        C  0.35416757  0.27846109  0.55677026     0.81700
N232        N  0.35273021  0.27057797  0.60457331    -0.79000
C233        C  0.36287170  0.30445690  0.63639362     0.81800
N234        N  0.38105938  0.34703493  0.61960588    -0.80700
C235        C  0.17795296  0.32556455  0.38475808     0.79300
N236        N  0.17130607  0.28118830  0.40234806    -0.79100
C237        C  0.13940410  0.27076821  0.43789291     0.81700
N238        N  0.11137396  0.30658124  0.45586926    -0.79000
C239        C  0.11434932  0.35211484  0.43828009     0.81800
N240        N  0.14878556  0.36232250  0.40248002    -0.80700
C241        C  0.60315090  0.37233047  0.42624753     0.79300
N242        N  0.62749881  0.35569719  0.38753161    -0.79100
C243        C  0.66682004  0.32497159  0.39383693     0.81700
N244        N  0.67864422  0.30823744  0.43941577    -0.79000
C245        C  0.65363980  0.32560131  0.47857287     0.81800
N246        N  0.61814435  0.35937059  0.47076812    -0.80700
C247        C  0.39926758  0.18268406  0.36404645     0.79300
N248        N  0.42401125  0.21595435  0.39102348    -0.79100
C249        C  0.46186011  0.20095210  0.42176745     0.81700
N250        N  0.47324882  0.15447655  0.42551482    -0.79000
C251        C  0.45034493  0.12166850  0.39977817     0.81800
N252        N  0.41265849  0.13523044  0.36886255    -0.80700
C253        C  0.67450245  0.64249299  0.82299190     0.79300
N254        N  0.67691230  0.64062773  0.77450387    -0.79100
C255        C  0.64572249  0.61273683  0.74936251     0.81700
N256        N  0.61283137  0.58469392  0.77327290    -0.79000
C257        C  0.61071099  0.58583152  0.82222529     0.81800
N258        N  0.64193692  0.61471291  0.84701750    -0.80700
C259        C  0.59008909  0.42436363  0.60391034     0.79300
N260        N  0.62737692  0.44699571  0.58121319    -0.79100
C261        C  0.67410271  0.44796114  0.59997331     0.81700
N262        N  0.68355765  0.42353305  0.64181891    -0.79000
C263        C  0.64692873  0.39842081  0.66397657     0.81800
N264        N  0.59951650  0.39911120  0.64538021    -0.80700
O265        O  0.38673105  0.52679546  0.56130034    -0.81900
O266        O  0.52139535  0.38559879  0.45156014    -0.66600
O267        O  0.47409715  0.49306019  0.51658291    -1.13200
C268        C  0.41836741  0.53460362  0.36336912     1.05000
O269        O  0.55087985  0.43128735  0.39247030    -0.79800
O270        O  0.52660884  0.52282349  0.37672940    -0.67300
Ni271      Ni  0.44883904  0.49287722  0.58006963     1.34900
C272        C  0.52467588  0.55670441  0.40654329     0.83800
O273        O  0.53523690  0.41585838  0.54085671    -0.80300
O274        O  0.51063537  0.46195859  0.60233696    -0.90600
C275        C  0.55545082  0.39651101  0.42183794     0.83300
O276        O  0.41706503  0.43226446  0.58057552    -0.68800
O277        O  0.43128193  0.49371036  0.34938808    -0.88100
C278        C  0.41705555  0.39682282  0.55272300     0.84200
C279        C  0.54069145  0.43217094  0.58290534     1.05700
H280        H  0.42966871  0.44004581  0.42947119     0.37500
O281        O  0.45854920  0.45994679  0.43334715    -1.10700
O282        O  0.49450747  0.55578208  0.44249575    -0.67400
Ni283      Ni  0.43684010  0.51711499  0.46236082     1.26300
O284        O  0.44058868  0.39675557  0.51225348    -0.67600
O285        O  0.40231470  0.54146760  0.40571135    -0.79900
C286        C  0.38528266  0.56485258  0.53505135     0.83500
O287        O  0.41195333  0.56919571  0.49741011    -0.67100
Ni288      Ni  0.49072279  0.46310669  0.37198622     1.27400
Ni289      Ni  0.49559163  0.43660135  0.48739270     1.26100
H290        H  0.50358000  0.51235622  0.51900510     0.38100
C291        C  0.34846781  0.17098490  0.10838268     0.79300
N292        N  0.38176704  0.13376014  0.10353443    -0.79100
C293        C  0.38125199  0.10737175  0.06206378     0.81700
N294        N  0.34427406  0.11572392  0.02855753    -0.79000
C295        C  0.31119922  0.15242747  0.03425004     0.81800
N296        N  0.31487979  0.18008183  0.07307728    -0.80700
C297        C  0.05524931  0.09862272  0.91066016     0.79300
N298        N  0.08998069  0.10182592  0.87497451    -0.79100
C299        C  0.11475126  0.14371640  0.86899149     0.81700
N300        N  0.10551290  0.18019950  0.89889625    -0.79000
C301        C  0.07326659  0.17657920  0.93554114     0.81800
N302        N  0.04772230  0.13580828  0.94048869    -0.80700
C303        C  0.13390691  0.34264380  0.84226165     0.79300
N304        N  0.08694661  0.33948099  0.82273518    -0.79100
C305        C  0.04662055  0.35784772  0.84528679     0.81700
N306        N  0.05371241  0.37901909  0.88757540    -0.79000
C307        C  0.09877039  0.38588070  0.90774686     0.81800
N308        N  0.14057152  0.36747434  0.88507583    -0.80700
C309        C  0.04166275  0.57245689  0.63423322     0.79300
N310        N  0.01325971  0.55146033  0.66713254    -0.79100
C311        C  0.01446171  0.56212241  0.71375712     0.81700
N312        N  0.04548924  0.59710449  0.72881937    -0.79000
C313        C  0.07452790  0.62067570  0.69590259     0.81800
N314        N  0.07264238  0.60817314  0.64807479    -0.80700
O315        O  0.21981003  0.33192050  0.81340357    -0.81900
O316        O  0.34746961  0.15930385  0.73221923    -0.66600
O317        O  0.25069307  0.26104770  0.74429493    -1.13200
C318        C  0.15524853  0.15167618  0.83464159     1.05000
O319        O  0.29177766  0.10024462  0.73202298    -0.79800
O320        O  0.19595601  0.12776185  0.71675078    -0.67300
Ni321      Ni  0.26703048  0.32566698  0.75891345     1.34900
C322        C  0.16828277  0.16376255  0.70738228     0.83800
O323        O  0.34093596  0.25048558  0.69764607    -0.80300
O324        O  0.31393536  0.32670692  0.70504130    -0.90600
C325        C  0.33463848  0.11664627  0.72230763     0.83300
O326        O  0.31996079  0.31181025  0.80345217    -0.68800
O327        O  0.17718615  0.11771606  0.81327222    -0.88100
C328        C  0.34538450  0.27510046  0.81603345     0.84200
C329        C  0.34034658  0.29460620  0.68441536     1.05700
H330        H  0.27410918  0.17654109  0.81582141     0.37500
O331        O  0.25798248  0.17802142  0.78444898    -1.10700
O332        O  0.16975876  0.20244662  0.73190356    -0.67400
Ni333      Ni  0.20849632  0.22746641  0.78655936     1.26300
O334        O  0.34056966  0.23433325  0.79636658    -0.67600
O335        O  0.16774855  0.19468636  0.82987674    -0.79900
C336        C  0.17472424  0.31717540  0.81492539     0.83500
O337        O  0.16256372  0.28037307  0.79130323    -0.67100
Ni338      Ni  0.23595326  0.11384338  0.77258494     1.27400
Ni339      Ni  0.30108564  0.21262762  0.74084255     1.26100
H340        H  0.23441265  0.26269668  0.71298934     0.38100
O341        O  0.55029410  0.05077696  0.89313833    -0.81900
O342        O  0.44642484  0.89760908  0.03268341    -0.66600
O343        O  0.47396026  0.99941825  0.94413332    -1.13200
C344        C  0.54196704  0.07006988  0.08727063     1.05000
O345        O  0.42204175  0.94890089  0.08899170    -0.79800
O346        O  0.43627807  0.04533570  0.09013032    -0.67300
Ni347      Ni  0.50924008  0.99294546  0.88523426     1.34900
C348        C  0.41975097  0.06925089  0.05373886     0.83800
O349        O  0.43131941  0.90743399  0.93597683    -0.80300
O350        O  0.47245639  0.93564548  0.87137845    -0.90600
C351        C  0.41893073  0.90876383  0.06843616     0.83300
O352        O  0.56253773  0.95394461  0.91116895    -0.68800
O353        O  0.53605322  0.02910984  0.10669030    -0.88100
C354        C  0.56396038  0.92086851  0.94316946     0.84200
C355        C  0.44453535  0.90469974  0.89191839     1.05700
H356        H  0.53232017  0.97098272  0.03390484     0.37500
O357        O  0.49853430  0.98340055  0.03142818    -1.10700
O358        O  0.43628627  0.06255841  0.01103911    -0.67400
Ni359      Ni  0.50248446  0.03883916  0.99260792     1.26300
O360        O  0.52751390  0.91229989  0.97176879    -0.67600
O361        O  0.53120664  0.07855445  0.04280448    -0.79900
C362        C  0.54177679  0.08886980  0.91668234     0.83500
O363        O  0.50768991  0.09021851  0.94813620    -0.67100
Ni364      Ni  0.47911584  0.98932353  0.09622478     1.27400
Ni365      Ni  0.46365950  0.94527553  0.98527444     1.26100
H366        H  0.44135957  0.01234543  0.93542706     0.38100
C367        C  0.93229044  0.40461868  0.36538539     0.79300
N368        N  0.92719771  0.44140879  0.33445469    -0.79100
C369        C  0.90174908  0.43792185  0.29276995     0.81700
N370        N  0.88091624  0.39616070  0.28012171    -0.79000
C371        C  0.88623831  0.35697179  0.30949070     0.81800
N372        N  0.91106603  0.36147440  0.35348301    -0.80700
C373        C  0.80951311  0.64421978  0.15605578     0.79300
N374        N  0.84785857  0.66286987  0.18122751    -0.79100
C375        C  0.89565209  0.65057029  0.17247755     0.81700
N376        N  0.90461640  0.62069125  0.13635930    -0.79000
C377        C  0.86862448  0.59750145  0.11276186     0.81800
N378        N  0.81925902  0.61031088  0.12106898    -0.80700
C379        C  0.54372677  0.10998261  0.12122279     0.79300
N380        N  0.58591952  0.13422086  0.13476124    -0.79100
C381        C  0.58279347  0.16491253  0.17284834     0.81700
N382        N  0.54030939  0.16653260  0.19878088    -0.79000
C383        C  0.50111739  0.13835812  0.18902905     0.81800
N384        N  0.50205486  0.11362529  0.14786759    -0.80700
C385        C  0.66819705  0.87980824  0.32966771     0.79300
N386        N  0.66277299  0.88837967  0.37784415    -0.79100
C387        C  0.64669117  0.93201074  0.39256905     0.81700
N388        N  0.63480020  0.96542983  0.35903122    -0.79000
C389        C  0.63439342  0.95628003  0.31158601     0.81800
N390        N  0.65158199  0.91319184  0.29654194    -0.80700
C391        C  0.11356523  0.57629713  0.37713341     0.79300
N392        N  0.14001873  0.61864814  0.37466784    -0.79100
C393        C  0.16036848  0.63197461  0.33064789     0.81700
N394        N  0.14951176  0.60570367  0.29143667    -0.79000
C395        C  0.11106729  0.57533534  0.29383864     0.81800
N396        N  0.10714029  0.55135229  0.33609200    -0.80700
C397        C  0.93464375  0.86726714  0.37405601     0.79300
N398        N  0.88455817  0.85974135  0.36273163    -0.79100
C399        C  0.87119025  0.81858832  0.33905573     0.81700
N400        N  0.90707083  0.78720929  0.32761525    -0.79000
C401        C  0.95540481  0.79467671  0.33806453     0.81800
N402        N  0.96934163  0.83434040  0.36118825    -0.80700
C403        C  0.81471914  0.88125280  0.14285572     0.79300
N404        N  0.79809919  0.92282116  0.16145585    -0.79100
C405        C  0.82240654  0.96403933  0.15514534     0.81700
N406        N  0.86474414  0.96309580  0.12947947    -0.79000
C407        C  0.88349189  0.92260865  0.11014048     0.81800
N408        N  0.85853744  0.88040428  0.11698199    -0.80700
C409        C  0.61391785  0.89926642  0.95342839     0.79300
N410        N  0.63960189  0.92168418  0.98793290    -0.79100
C411        C  0.68965996  0.91798134  0.99157282     0.81700
N412        N  0.71529141  0.88906933  0.96138097    -0.79000
C413        C  0.69052009  0.86332022  0.92770735     0.81800
N414        N  0.63973881  0.87130504  0.92159025    -0.80700
O415        O  0.77742126  0.80295608  0.13113073    -0.81900
O416        O  0.66389850  0.66036440  0.28066556    -0.66600
O417        O  0.70274188  0.76564397  0.19579177    -1.13200
C418        C  0.81980878  0.80360089  0.32405412     1.05000
O419        O  0.66896656  0.71205293  0.34062624    -0.79800
O420        O  0.70251743  0.80287226  0.34538596    -0.67300
Ni421      Ni  0.71713728  0.76221390  0.12834662     1.34900
C422        C  0.69185475  0.83468288  0.31366885     0.83800
O423        O  0.63553599  0.68900555  0.18841237    -0.80300
O424        O  0.65896539  0.72293354  0.11786803    -0.90600
C425        C  0.64948792  0.67479476  0.32242708     0.83300
O426        O  0.75767172  0.70634477  0.13228192    -0.68800
O427        O  0.79849710  0.77120237  0.34920909    -0.88100
C428        C  0.76233256  0.67172341  0.16210251     0.84200
C429        C  0.63050453  0.69594760  0.14268057     1.05700
H430        H  0.76903757  0.71376665  0.27117875     0.37500
O431        O  0.74014697  0.73430649  0.27492549    -1.10700
O432        O  0.70286755  0.83014448  0.26938778    -0.67400
Ni433      Ni  0.75260050  0.79058806  0.23848740     1.26300
O434        O  0.73686407  0.66810930  0.20157036    -0.67600
O435        O  0.80406728  0.81553464  0.28170168    -0.79900
C436        C  0.78478986  0.83934121  0.15745451     0.83500
O437        O  0.76392014  0.84315524  0.19784740    -0.67100
Ni438      Ni  0.73368209  0.74099269  0.34249553     1.27400
Ni439      Ni  0.68675333  0.71004341  0.23347330     1.26100
H440        H  0.67374685  0.78642581  0.19723118     0.38100
C441        C  0.41695952  0.64993695  0.29950781     0.79300
N442        N  0.40552043  0.61449339  0.33107203    -0.79100
C443        C  0.43306553  0.57476100  0.33383914     0.81700
N444        N  0.47474534  0.57149698  0.30784458    -0.79000
C445        C  0.48994444  0.60752161  0.27889146     0.81800
N446        N  0.45913664  0.64658272  0.27217303    -0.80700
C447        C  0.40047986  0.37834653  0.16675772     0.79300
N448        N  0.40377069  0.37967389  0.11733419    -0.79100
C449        C  0.44921916  0.38619401  0.09623890     0.81700
N450        N  0.48986487  0.39048384  0.12500877    -0.79000
C451        C  0.48600545  0.39666748  0.17285454     0.81800
N452        N  0.44110177  0.38984863  0.19396733    -0.80700
O453        O  0.47047302  0.41173125  0.85749107    -0.81900
O454        O  0.54903290  0.58022282  0.98299919    -0.66600
O455        O  0.53931602  0.46762225  0.90976738    -1.13200
C456        C  0.45485514  0.41658218  0.05292983     1.05000
O457        O  0.57550245  0.53584277  0.04501453    -0.79800
O458        O  0.56063971  0.44052272  0.06607682    -0.67300
Ni459      Ni  0.51233091  0.46760497  0.84523586     1.34900
C460        C  0.58224161  0.41218366  0.03734988     0.83800
O461        O  0.58006847  0.55665903  0.89496391    -0.80300
O462        O  0.55340543  0.52174533  0.82685837    -0.90600
C463        C  0.56779626  0.57669109  0.02557185     0.83300
O464        O  0.45554924  0.50940996  0.85389042    -0.68800
O465        O  0.45798677  0.46039484  0.06287622    -0.88100
C466        C  0.44871648  0.54449229  0.88155262     0.84200
C467        C  0.57908923  0.55281471  0.84935589     1.05700
H468        H  0.46949715  0.50422850  0.98521348     0.37500
O469        O  0.50356149  0.49283762  0.98910971    -1.10700
O470        O  0.57021903  0.41258269  0.99194747    -0.67400
Ni471      Ni  0.50606009  0.43317856  0.96025188     1.26300
O472        O  0.48011704  0.55488644  0.91513056    -0.67600
O473        O  0.47177626  0.39995243  0.01333231    -0.79900
C474        C  0.47727661  0.37606091  0.88649454     0.83500
O475        O  0.50667715  0.37782007  0.92298483    -0.67100
Ni476      Ni  0.51766135  0.49677166  0.05496292     1.27400
Ni477      Ni  0.54209037  0.52595909  0.94293952     1.26100
H478        H  0.57308636  0.45522052  0.90796434     0.38100
O479        O  0.95939512  0.94927261  0.38057152    -0.81900
O480        O  0.04718011  0.08616002  0.53701466    -0.66600
O481        O  0.03160775  0.98257353  0.45008559    -1.13200
C482        C  0.92984315  0.92616778  0.57649517     1.05000
O483        O  0.06983274  0.03577220  0.59618043    -0.79800
O484        O  0.05349247  0.93695082  0.59603585    -0.67300
Ni485      Ni  0.01666986  0.99305584  0.38242309     1.34900
C486        C  0.05591910  0.90404391  0.56536658     0.83800
O487        O  0.08557122  0.06829528  0.45089240    -0.80300
O488        O  0.07427722  0.03580418  0.37798527    -0.90600
C489        C  0.06796142  0.07808391  0.57834489     0.83300
O490        O  0.97106848  0.04659523  0.38304419    -0.68800
O491        O  0.95569010  0.95184851  0.60491388    -0.88100
C492        C  0.96323990  0.07733930  0.41501770     0.84200
C493        C  0.09783153  0.06292475  0.40731606     1.05700
H494        H  0.96235830  0.02115847  0.53078575     0.37500
O495        O  0.99355973  0.00340866  0.53097780    -1.10700
O496        O  0.03565882  0.90836728  0.52276862    -0.67400
Ni497      Ni  0.98458573  0.95039699  0.49032513     1.26300
O498        O  0.98433840  0.07452981  0.45745523    -0.67600
O499        O  0.93679596  0.92249783  0.53138097    -0.79900
C500        C  0.95441698  0.90868246  0.40181953     0.83500
O501        O  0.97244521  0.90091656  0.44427320    -0.67100
Ni502      Ni  0.01213622  0.99322857  0.59777531     1.27400
Ni503      Ni  0.03843798  0.03676084  0.49051751     1.26100
H504        H  0.06278337  0.96484170  0.45198431     0.38100
C505        C  0.41295424  0.90900732  0.43078283     0.79300
N506        N  0.40195796  0.87910054  0.46779031    -0.79100
C507        C  0.37621429  0.83891937  0.45960238     0.81700
N508        N  0.36086751  0.82924860  0.41438142    -0.79000
C509        C  0.36887847  0.85891477  0.37700936     0.81800
N510        N  0.39536344  0.89964683  0.38480054    -0.80700
C511        C  0.11496259  0.79834626  0.63523809     0.79300
N512        N  0.09286603  0.84280399  0.62687497    -0.79100
C513        C  0.08307842  0.85813731  0.57948537     0.81700
N514        N  0.10038026  0.83134723  0.54297767    -0.79000
C515        C  0.12438565  0.78929442  0.55189426     0.81800
N516        N  0.12598358  0.77145412  0.59710520    -0.80700
C517        C  0.38335804  0.28314443  0.85419279     0.79300
N518        N  0.41368416  0.32197388  0.84875159    -0.79100
C519        C  0.44579720  0.33355353  0.88485747     0.81700
N520        N  0.44513929  0.30832272  0.92591765    -0.79000
C521        C  0.41386245  0.27228176  0.93414346     0.81800
N522        N  0.38290383  0.25830433  0.89752191    -0.80700
C523        C  0.57526862  0.13088915  0.91604836     0.79300
N524        N  0.57628232  0.15450094  0.95742577    -0.79100
C525        C  0.59958825  0.19615130  0.96335998     0.81700
N526        N  0.62511805  0.21494951  0.92545453    -0.79000
C527        C  0.62702074  0.19091876  0.88281640     0.81800
N528        N  0.60117573  0.14888420  0.87788649    -0.80700
C529        C  0.13093655  0.16068338  0.66744490     0.79300
N530        N  0.10115177  0.19938944  0.66006127    -0.79100
C531        C  0.06423280  0.19883047  0.62688110     0.81700
N532        N  0.05632498  0.15978062  0.60048439    -0.79000
C533        C  0.08437116  0.11996845  0.60702752     0.81800
N534        N  0.12191712  0.11973916  0.64168335    -0.80700
C535        C  0.85139325  0.39700218  0.58623699     0.79300
N536        N  0.83147997  0.36752076  0.55275544    -0.79100
C537        C  0.81299846  0.32554973  0.56813844     0.81700
N538        N  0.78443334  0.32818102  0.60708973    -0.79000
C539        C  0.80097120  0.35539611  0.64354301     0.81800
N540        N  0.83764670  0.38942708  0.63415892    -0.80700
C541        C  0.62326471  0.37835244  0.05759015     0.79300
N542        N  0.65849916  0.36160275  0.02641304    -0.79100
C543        C  0.69677455  0.33303154  0.04312095     0.81700
N544        N  0.69907945  0.32028332  0.08983391    -0.79000
C545        C  0.66509172  0.33357903  0.12211833     0.81800
N546        N  0.62608081  0.36334839  0.10610468    -0.80700
C547        C  0.91075868  0.35497795  0.93413428     0.79300
N548        N  0.92740318  0.31046640  0.94559442    -0.79100
C549        C  0.90463575  0.27168271  0.92743566     0.81700
N550        N  0.87081948  0.27884582  0.89116001    -0.79000
C551        C  0.85383375  0.32301850  0.87878876     0.81800
N552        N  0.87267532  0.36136300  0.90148497    -0.80700
O553        O  0.79818782  0.35519368  0.81837869    -0.81900
O554        O  0.69383091  0.23282367  0.66889659    -0.66600
O555        O  0.71334301  0.30402487  0.78384898    -1.13200
C556        C  0.78624953  0.16104886  0.83593509     1.05000
O557        O  0.66742200  0.16771000  0.70815753    -0.79800
O558        O  0.65209440  0.19145294  0.80152938    -0.67300
Ni559      Ni  0.73689603  0.36865036  0.78163701     1.34900
C560        C  0.66001633  0.20764047  0.84319865     0.83800
O561        O  0.66561877  0.32282749  0.69481835    -0.80300
O562        O  0.67916129  0.38626362  0.74246999    -0.90600
C563        C  0.67812685  0.18987734  0.66933067     0.83300
O564        O  0.77453055  0.37162539  0.72348642    -0.68800
O565        O  0.74067333  0.15179267  0.82844337    -0.88100
C566        C  0.77974386  0.34102332  0.69108513     0.84200
C567        C  0.66201993  0.36707713  0.70412356     1.05700
H568        H  0.76963837  0.21429788  0.73857040     0.37500
O569        O  0.73947486  0.22088796  0.75619783    -1.10700
O570        O  0.69961315  0.23158977  0.85249125    -0.67400
Ni571      Ni  0.75550811  0.25509114  0.81212206     1.26300
O572        O  0.76226162  0.29839940  0.69501030    -0.67600
O573        O  0.80050358  0.20413433  0.83499778    -0.79900
C574        C  0.80590943  0.32563703  0.85308405     0.83500
O575        O  0.77458830  0.29383577  0.86325950    -0.67100
Ni576      Ni  0.70527222  0.16244378  0.76781996     1.27400
Ni577      Ni  0.70266406  0.27149461  0.72510236     1.26100
H578        H  0.68203185  0.30464844  0.80075920     0.38100
C579        C  0.16402496  0.82119730  0.89471185     0.79300
N580        N  0.11981921  0.84631514  0.89744944    -0.79100
C581        C  0.10452879  0.86338611  0.94096132     0.81700
N582        N  0.13173994  0.85306064  0.98102329    -0.79000
C583        C  0.17182832  0.82320182  0.97971799     0.81800
N584        N  0.19114817  0.81280051  0.93575153    -0.80700
C585        C  0.88610977  0.67902873  0.90069826     0.79300
N586        N  0.92490200  0.70841417  0.91074952    -0.79100
C587        C  0.96385919  0.69237972  0.93896592     0.81700
N588        N  0.96504826  0.64710396  0.95569491    -0.79000
C589        C  0.92848762  0.61627651  0.94576164     0.81800
N590        N  0.88842665  0.63219459  0.91771215    -0.80700
C591        C  0.86686797  0.05312390  0.85884939     0.79300
N592        N  0.85623040  0.03080951  0.81665725    -0.79100
C593        C  0.82932329  0.05372328  0.78127409     0.81700
N594        N  0.81274872  0.09818699  0.78814826    -0.79000
C595        C  0.82072769  0.12069088  0.82987535     0.81800
N596        N  0.84731069  0.09796241  0.86636964    -0.80700
C597        C  0.83787292  0.87748204  0.65981056     0.79300
N598        N  0.88284249  0.88400786  0.63883131    -0.79100
C599        C  0.88434801  0.90623970  0.59480150     0.81700
N600        N  0.84205575  0.92366427  0.57353574    -0.79000
C601        C  0.79770950  0.92111968  0.59579102     0.81800
N602        N  0.79603200  0.89659732  0.63849626    -0.80700
O603        O  0.83182242  0.65677381  0.72523178    -0.81900
O604        O  0.73547845  0.79664743  0.89115372    -0.66600
O605        O  0.76759952  0.72177713  0.77849210    -1.13200
C606        C  0.83280210  0.85667566  0.70841047     1.05000
O607        O  0.73254151  0.86821332  0.85451843    -0.79800
O608        O  0.71434381  0.85231238  0.76074453    -0.67300
Ni609      Ni  0.79369115  0.65743806  0.78564953     1.34900
C610        C  0.71317123  0.82646139  0.72377409     0.83800
O611        O  0.70652915  0.71101817  0.85797689    -0.80300
O612        O  0.75779977  0.65205480  0.84465778    -0.90600
C613        C  0.72083344  0.84048838  0.88899430     0.83300
O614        O  0.84992435  0.67603864  0.82292513    -0.68800
O615        O  0.80505449  0.87935077  0.73698100    -0.88100
C616        C  0.84694589  0.69521312  0.86410591     0.84200
C617        C  0.71362177  0.66771541  0.84797851     1.05700
H618        H  0.82878406  0.80476664  0.82481118     0.37500
O619        O  0.79763275  0.80370624  0.80688076    -1.10700
O620        O  0.74725639  0.79493783  0.71500893    -0.67400
Ni621      Ni  0.80771085  0.76817733  0.74848375     1.26300
O622        O  0.81130337  0.72557541  0.87429842    -0.67600
O623        O  0.84841456  0.81480575  0.71771955    -0.79900
C624        C  0.83208630  0.68611684  0.68943330     0.83500
O625        O  0.81826747  0.72959990  0.69331222    -0.67100
Ni626      Ni  0.77193253  0.86845322  0.79713783     1.27400
Ni627      Ni  0.75410386  0.75719144  0.83625674     1.26100
H628        H  0.73664861  0.71971297  0.76038137     0.38100
O629        O  0.10465013  0.52498677  0.08524215    -0.81900
O630        O  0.95936280  0.38489870  0.99809826    -0.66600
O631        O  0.03832749  0.49183818  0.01451436    -1.13200
C632        C  0.89019690  0.55659687  0.08443990     1.05000
O633        O  0.90391513  0.43457236  0.96011699    -0.79800
O634        O  0.90401917  0.53448479  0.96252481    -0.67300
Ni635      Ni  0.10889409  0.48784409  0.02523414     1.34900
C636        C  0.93334772  0.56855831  0.97128872     0.83800
O637        O  0.05518420  0.40003994  0.97769071    -0.80300
O638        O  0.11766718  0.45024250  0.96557185    -0.90600
C639        C  0.92545689  0.39350320  0.96588103     0.83300
O640        O  0.11240105  0.43060859  0.06286847    -0.68800
O641        O  0.86572353  0.53333615  0.05259552    -0.88100
C642        C  0.07903143  0.40773960  0.08485763     0.84200
C643        C  0.09373518  0.41249140  0.95434288     1.05700
H644        H  0.94222530  0.45332850  0.06943195     0.37500
O645        O  0.94998696  0.47020658  0.03986396    -1.10700
O646        O  0.96737008  0.56488879  0.00420497    -0.67400
Ni647      Ni  0.98915749  0.52079831  0.05567018     1.26300
O648        O  0.03203270  0.40985792  0.07153483    -0.67600
O649        O  0.93697763  0.54834380  0.09339989    -0.79900
C650        C  0.07591278  0.56045152  0.09533914     0.83500
O651        O  0.03283145  0.56700672  0.07643561    -0.67100
Ni652      Ni  0.88732744  0.48343719  0.00707006     1.27400
Ni653      Ni  0.00303452  0.43547753  0.00906991     1.26100
H654        H  0.03489896  0.50768102  0.98342272     0.38100
C655        C  0.36854672  0.08182766  0.69868934     0.79300
N656        N  0.38903428  0.09093853  0.65433144    -0.79100
C657        C  0.40703512  0.05362580  0.62803237     0.81700
N658        N  0.40603209  0.00939549  0.64639080    -0.79000
C659        C  0.38927548  0.00026510  0.69062719     0.81800
N660        N  0.37051679  0.03632686  0.71728079    -0.80700
C661        C  0.43834365  0.86015782  0.86408482     0.79300
N662        N  0.48073624  0.84669206  0.84159109    -0.79100
C663        C  0.48140700  0.81305701  0.80753288     0.81700
N664        N  0.43885464  0.78931763  0.79945579    -0.79000
C665        C  0.39476831  0.80223020  0.81917251     0.81800
N666        N  0.39371754  0.83901873  0.85167333    -0.80700
C667        C  0.09516013  0.60296842  0.11833460     0.79300
N668        N  0.08303295  0.64249978  0.09193562    -0.79100
C669        C  0.12055398  0.67217921  0.08404652     0.81700
N670        N  0.14664299  0.68341931  0.12368210    -0.79000
C671        C  0.15535972  0.64868179  0.15770199     0.81800
N672        N  0.13349129  0.60488201  0.15210981    -0.80700
C673        C  0.33514906  0.62201392  0.84683229     0.79300
N674        N  0.38272757  0.60188934  0.84493538    -0.79100
C675        C  0.39857099  0.56907099  0.87992665     0.81700
N676        N  0.36676699  0.55674399  0.91527473    -0.79000
C677        C  0.31980166  0.57497297  0.91567436     0.81800
N678        N  0.30469280  0.60781639  0.88215506    -0.80700
O679        O  0.14779789  0.79463682  0.81424716    -0.81900
O680        O  0.23857297  0.68373010  0.64728302    -0.66600
O681        O  0.18825547  0.71236121  0.77218000    -1.13200
C682        C  0.35072630  0.77902424  0.79595306     1.05000
O683        O  0.30515914  0.65431742  0.68451045    -0.79800
O684        O  0.33984532  0.66522723  0.77409310    -0.67300
Ni685      Ni  0.12300368  0.73949247  0.77970252     1.34900
C686        C  0.31608535  0.66051352  0.81272849     0.83800
O687        O  0.15145054  0.66219480  0.69249977    -0.80300
O688        O  0.09490401  0.68439527  0.74790194    -0.90600
C689        C  0.28029624  0.66135475  0.64585976     0.83300
O690        O  0.11206556  0.77697680  0.72057471    -0.68800
O691        O  0.36148960  0.75616709  0.75762711    -0.88100
C692        C  0.13686656  0.77780114  0.68180770     0.84200
C693        C  0.10893277  0.65827161  0.71282580     1.05700
H694        H  0.26719625  0.76404756  0.71223024     0.37500
O695        O  0.26774633  0.73393637  0.72963916    -1.10700
O696        O  0.27746785  0.68707424  0.82283261    -0.61000
Ni697      Ni  0.24652238  0.74641915  0.79343633     1.26300
O698        O  0.17854746  0.75478566  0.67799157    -0.67600
O699        O  0.30671424  0.78021011  0.81362579    -0.79900
C700        C  0.17679026  0.79257147  0.85145825     0.83500
O701        O  0.21538379  0.76463077  0.85281043    -0.67100
Ni702      Ni  0.33204585  0.70674229  0.72012330     1.27400
Ni703      Ni  0.20998661  0.69863105  0.70911531     1.26100
H704        H  0.18817018  0.68244656  0.78992162     0.38100
C705        C  0.15211750  0.65360786  0.04476904    -0.06200
C706        C  0.12923902  0.63172472  0.00492482    -0.06100
C707        C  0.15730039  0.60469119  0.97344993    -0.24300
C708        C  0.20813443  0.59672977  0.98294828     0.17900
C709        C  0.23102816  0.61656827  0.02393042     0.15100
C710        C  0.20372340  0.64666817  0.05288388    -0.19300
C711        C  0.28131055  0.60664803  0.03491846    -0.21200
C712        C  0.31041062  0.58269244  0.00192201    -0.13700
C713        C  0.28917619  0.56964973  0.95778401     0.02900
C714        C  0.23739095  0.57209155  0.95050205    -0.25900
H715        H  0.08927306  0.63504270  0.99873470     0.08000
H716        H  0.13915648  0.58944016  0.94228739     0.11600
H717        H  0.22253978  0.66230790  0.08342036     0.11600
H718        H  0.29881949  0.62025883  0.06720407     0.11300
H719        H  0.35048876  0.58073957  0.00788230     0.11900
H720        H  0.22127177  0.56126841  0.91636659     0.13800
C721        C  0.51393423  0.82182464  0.76491407    -0.06200
C722        C  0.54641657  0.86049326  0.77016971    -0.06100
C723        C  0.52762273  0.90595862  0.75700826    -0.24300
C724        C  0.48062941  0.90952895  0.73362168     0.17900
C725        C  0.45990146  0.86809285  0.71358472     0.15100
C726        C  0.48456414  0.82428071  0.72238324    -0.19300
C727        C  0.41259476  0.87031446  0.69136092    -0.21200
C728        C  0.38549149  0.91318648  0.69003901    -0.13700
C729        C  0.40539275  0.95429647  0.71056620     0.02900
C730        C  0.45324694  0.95228105  0.73198070    -0.25900
H731        H  0.57741907  0.85793996  0.79561073     0.08000
H732        H  0.54645434  0.93733135  0.76966626     0.11600
H733        H  0.46670798  0.79224135  0.71004495     0.11600
H734        H  0.39627339  0.83887872  0.67589032     0.11300
H735        H  0.35020602  0.91508116  0.67043120     0.11900
H736        H  0.47002831  0.98453746  0.74521201     0.13800
C737        C  0.76143539  0.96155512  0.58715705    -0.06200
C738        C  0.78453110  0.00369562  0.57124671    -0.06100
C739        C  0.80208616  0.03446502  0.60685371    -0.24300
C740        C  0.78841886  0.02605539  0.65502152     0.17900
C741        C  0.74957082  0.99363182  0.66456063     0.15100
C742        C  0.72959375  0.96808349  0.62604655    -0.19300
C743        C  0.73832198  0.98095455  0.71216334    -0.21200
C744        C  0.76774996  0.99763727  0.74994606    -0.13700
C745        C  0.80696513  0.02896867  0.74075682     0.02900
C746        C  0.81562384  0.04503312  0.69341418    -0.25900
H747        H  0.80187211  0.00513265  0.53620990     0.08000
H748        H  0.83105417  0.05939388  0.59804320     0.11600
H749        H  0.70363331  0.94054445  0.63372382     0.11600
H750        H  0.70906118  0.95583561  0.71996207     0.11300
H751        H  0.75902050  0.98719650  0.78663302     0.11900
H752        H  0.84463111  0.07073738  0.68655002     0.13800
C753        C  0.01015046  0.71853846  0.94485907    -0.06200
C754        C  0.04920046  0.70605432  0.91412596    -0.06100
C755        C  0.09866752  0.71282274  0.92796257    -0.24300
C756        C  0.10964271  0.73370904  0.97214510     0.17900
C757        C  0.07069358  0.74977652  0.00201169     0.15100
C758        C  0.02088428  0.74074780  0.98883722    -0.19300
C759        C  0.08348832  0.77395152  0.04450017    -0.21200
C760        C  0.13336277  0.78823374  0.05172066    -0.13700
C761        C  0.16750813  0.78184595  0.01375163     0.02900
C762        C  0.15926009  0.74109841  0.98656994    -0.25900
H763        H  0.04148890  0.68719948  0.88115719     0.08000
H764        H  0.12831776  0.70117546  0.90451806     0.11600
H765        H  0.99091790  0.74902050  0.01334172     0.11600
H766        H  0.05501039  0.78491209  0.06951814     0.11300
H767        H  0.14123167  0.81368570  0.07956833     0.11900
H768        H  0.18904383  0.72768212  0.96412771     0.13800
C769        C  0.73531329  0.31086759  0.01314711    -0.06200
C770        C  0.72213249  0.28025194  0.97579994    -0.06100
C771        C  0.75666122  0.24641314  0.95927304    -0.24300
C772        C  0.80545156  0.24438251  0.97830136     0.17900
C773        C  0.81890279  0.27509111  0.01593134     0.15100
C774        C  0.78406760  0.30800740  0.03285189    -0.19300
C775        C  0.86778838  0.27239536  0.03499893    -0.21200
C776        C  0.90414542  0.24577785  0.01076071    -0.13700
C777        C  0.89256487  0.23294677  0.96315760     0.02900
C778        C  0.84328650  0.21644953  0.95730484    -0.25900
H779        H  0.68455598  0.28074639  0.96128999     0.08000
H780        H  0.74572429  0.22243884  0.93113553     0.11600
H781        H  0.79422854  0.33037608  0.06281735     0.11600
H782        H  0.87854990  0.29332619  0.06571188     0.11300
H783        H  0.94284901  0.24966542  0.02172918     0.11900
H784        H  0.83415469  0.19597021  0.92578790     0.13800
C785        C  0.02648707  0.23561959  0.62530537    -0.06200
C786        C  0.03255516  0.27459332  0.59437657    -0.06100
C787        C  0.99062420  0.29686386  0.57417358    -0.24300
C788        C  0.94299606  0.28154631  0.58658690     0.17900
C789        C  0.93701232  0.24652149  0.62292345     0.15100
C790        C  0.97924542  0.22356389  0.64226861    -0.19300
C791        C  0.88907716  0.23180532  0.63538658    -0.21200
C792        C  0.84735028  0.25263431  0.61237013    -0.13700
C793        C  0.85305993  0.28862157  0.57658607     0.02900
C794        C  0.90150576  0.29911859  0.56143597    -0.25900
H795        H  0.06922995  0.28491303  0.58256697     0.08000
H796        H  0.99535266  0.32403313  0.54704079     0.11600
H797        H  0.97523161  0.19298902  0.66629462     0.11600
H798        H  0.88387896  0.20435312  0.66271723     0.11300
H799        H  0.81058836  0.24253365  0.62435102     0.11900
H800        H  0.90693006  0.32242701  0.53075023     0.13800
C801        C  0.58408400  0.22310906  0.00676870    -0.06200
C802        C  0.57822935  0.27278848  0.00424954    -0.06100
C803        C  0.53351063  0.29360085  0.02049486    -0.24300
C804        C  0.49243935  0.26393228  0.02965417     0.17900
C805        C  0.50109758  0.21465802  0.03432111     0.15100
C806        C  0.55063359  0.19849414  0.03676366    -0.19300
C807        C  0.46350420  0.18348596  0.01894255    -0.21200
C808        C  0.42396091  0.20148620  0.98963059    -0.13700
C809        C  0.41821148  0.25086413  0.98361220     0.02900
C810        C  0.44419094  0.27961210  0.01682525    -0.25900
H811        H  0.60316261  0.29429179  0.98308043     0.08000
H812        H  0.52776287  0.33114141  0.01429654     0.11600
H813        H  0.55717610  0.16096775  0.04213129     0.11600
H814        H  0.47076702  0.14576776  0.01946484     0.11300
H815        H  0.40368161  0.17752544  0.96661556     0.11900
H816        H  0.43725509  0.31760504  0.01483660     0.13800
C817        C  0.35082040  0.81424140  0.49876601    -0.06200
C818        C  0.34186007  0.83874358  0.54143222    -0.06100
C819        C  0.29585127  0.83415215  0.56334522    -0.24300
C820        C  0.25962647  0.80551481  0.54199643     0.17900
C821        C  0.27229421  0.77399507  0.50504464     0.15100
C822        C  0.31966175  0.77649579  0.48573734    -0.19300
C823        C  0.23568108  0.74512959  0.48406035    -0.21200
C824        C  0.18575100  0.75029670  0.49735855    -0.13700
C825        C  0.17309876  0.78482057  0.53081852     0.02900
C826        C  0.21022305  0.81112616  0.55395670    -0.25900
H827        H  0.36653856  0.86651964  0.55338870     0.08000
H828        H  0.28666352  0.85706580  0.59308047     0.11600
H829        H  0.32818164  0.75536483  0.45445998     0.11600
H830        H  0.24535416  0.72015292  0.45625234     0.11300
H831        H  0.15740662  0.72803151  0.48159693     0.11900
H832        H  0.20021938  0.83636742  0.58156038     0.13800
C833        C  0.51946559  0.43258334  0.19281012    -0.06200
C834        C  0.54157734  0.42844580  0.23867232    -0.06100
C835        C  0.56237065  0.46870950  0.25985561    -0.24300
C836        C  0.55731043  0.51365885  0.23661796     0.17900
C837        C  0.53791280  0.51708602  0.18934731     0.15100
C838        C  0.52146009  0.47621189  0.16725979    -0.19300
C839        C  0.52683812  0.56203131  0.16837548    -0.21200
C840        C  0.52380160  0.60169551  0.19793688    -0.13700
C841        C  0.53244598  0.59560415  0.24741852     0.02900
C842        C  0.56150278  0.55543244  0.26277464    -0.25900
H843        H  0.54047224  0.39510574  0.25880547     0.08000
H844        H  0.57696811  0.46568855  0.29641521     0.11600
H845        H  0.50293803  0.48026554  0.13288701     0.11600
H846        H  0.51265159  0.56513354  0.13169175     0.11300
H847        H  0.50512223  0.63349655  0.18431435     0.11900
H848        H  0.57195628  0.55124839  0.30020166     0.13800
C849        C  0.79435824  0.00999055  0.15995610    -0.06200
C850        C  0.74615942  0.00555405  0.17910552    -0.06100
C851        C  0.70712277  0.99605779  0.14643544    -0.24300
C852        C  0.71843992  0.99526632  0.09696071     0.17900
C853        C  0.76245264  0.01781236  0.08091852     0.15100
C854        C  0.79537110  0.03502157  0.11590580    -0.19300
C855        C  0.77902985  0.01132305  0.03375936    -0.21200
C856        C  0.75620694  0.97747077  0.00499175    -0.13700
C857        C  0.71468968  0.95261980  0.02195825     0.02900
C858        C  0.69350271  0.96454515  0.06630508    -0.25900
H859        H  0.74160747  0.99598482  0.21675731     0.08000
H860        H  0.67253606  0.98163856  0.15982737     0.11600
H861        H  0.83087896  0.04765197  0.10391166     0.11600
H862        H  0.81283918  0.02805578  0.02126811     0.11300
H863        H  0.77118851  0.97033973  0.96972655     0.11900
H864        H  0.66085788  0.94590706  0.07898315     0.13800
C865        C  0.06290616  0.59977584  0.27996197    -0.06200
C866        C  0.02061378  0.58962227  0.30813166    -0.06100
C867        C  0.99275429  0.62666635  0.32734255    -0.24300
C868        C  0.00408587  0.67370747  0.31512414     0.17900
C869        C  0.03997516  0.68342678  0.27965662     0.15100
C870        C  0.06597380  0.64578948  0.25917914    -0.19300
C871        C  0.05157939  0.73060790  0.26756692    -0.21200
C872        C  0.02740687  0.76802318  0.29047198    -0.13700
C873        C  0.99079812  0.75814390  0.32455284     0.02900
C874        C  0.97959072  0.71114118  0.33716746    -0.25900
H875        H  0.01416127  0.55382719  0.32159637     0.08000
H876        H  0.96381284  0.61859866  0.35305351     0.11600
H877        H  0.09547246  0.65385082  0.23442385     0.11600
H878        H  0.07879024  0.73835557  0.24014877     0.11300
H879        H  0.03483990  0.80437584  0.27951475     0.11900
H880        H  0.95036225  0.70388516  0.36290947     0.13800
C881        C  0.60072110  0.98729338  0.28180283    -0.06200
C882        C  0.57138732  0.96811952  0.24475001    -0.06100
C883        C  0.52895680  0.99281647  0.22706916    -0.24300
C884        C  0.51568086  0.03727970  0.24580048     0.17900
C885        C  0.54559297  0.05736605  0.28221406     0.15100
C886        C  0.58799125  0.03265383  0.29946832    -0.19300
C887        C  0.53232233  0.10224827  0.30022062    -0.21200
C888        C  0.49521554  0.12970313  0.27632460    -0.13700
C889        C  0.47778882  0.11426689  0.23120577     0.02900
C890        C  0.47576872  0.06444356  0.22598878    -0.25900
H891        H  0.57949712  0.93289034  0.23142696     0.08000
H892        H  0.50668005  0.97727697  0.19866535     0.11600
H893        H  0.60996458  0.04791052  0.32830751     0.11600
H894        H  0.55289419  0.11738036  0.33002287     0.11300
H895        H  0.49117841  0.16680185  0.28574930     0.11900
H896        H  0.45508377  0.05019526  0.19573690     0.13800
C897        C  0.89195354  0.48256289  0.26758114    -0.06200
C898        C  0.85678798  0.51295155  0.28878662    -0.06100
C899        C  0.86209875  0.56209829  0.28577899    -0.24300
C900        C  0.90175990  0.58132422  0.26008454     0.17900
C901        C  0.93575662  0.55090536  0.23621560     0.15100
C902        C  0.93083260  0.50161627  0.24046440    -0.19300
C903        C  0.97473293  0.57107698  0.20969515    -0.21200
C904        C  0.97489006  0.62057236  0.20190841    -0.13700
C905        C  0.93136350  0.64666072  0.21334240     0.02900
C906        C  0.90626241  0.63069867  0.25441624    -0.25900
H907        H  0.82815498  0.49849022  0.31185351     0.08000
H908        H  0.83555923  0.58495025  0.30377544     0.11600
H909        H  0.95922796  0.47821808  0.22594466     0.11600
H910        H  0.00312519  0.54895107  0.19341330     0.11300
H911        H  0.00060961  0.63494179  0.17578320     0.11900
H912        H  0.87862493  0.65386734  0.27056393     0.13800
C913        C  0.98867137  0.52811758  0.74576294    -0.06200
C914        C  0.98241436  0.53529296  0.79512417    -0.06100
C915        C  0.96934063  0.49684339  0.82505757    -0.24300
C916        C  0.96779444  0.45059053  0.80622540     0.17900
C917        C  0.97102712  0.44398790  0.75624008     0.15100
C918        C  0.97646033  0.48341408  0.72622750    -0.19300
C919        C  0.97883330  0.39805855  0.73802193    -0.21200
C920        C  0.99585402  0.36176560  0.76947330    -0.13700
C921        C  0.99982902  0.37097833  0.81887064     0.02900
C922        C  0.97367804  0.41095698  0.83670036    -0.25900
H923        H  0.99011918  0.56952177  0.81072273     0.08000
H924        H  0.96724935  0.50221520  0.86357678     0.11600
H925        H  0.97966528  0.47693293  0.68798816     0.11600
H926        H  0.98081846  0.39248398  0.69951936     0.11300
H927        H  0.01295183  0.33014817  0.75468511     0.11900
H928        H  0.97268934  0.41687819  0.87515377     0.13800
C929        C  0.26127564  0.15236116  0.01292946    -0.06200
C930        C  0.23043633  0.11509291  0.02789985    -0.06100
C931        C  0.17901150  0.12219100  0.03103224    -0.24300
C932        C  0.15743080  0.16588380  0.01661355     0.17900
C933        C  0.18772500  0.20275838  0.99845295     0.15100
C934        C  0.23967308  0.19617672  0.99783678    -0.19300
C935        C  0.16472472  0.24475808  0.98012841    -0.21200
C936        C  0.11296566  0.24537795  0.97125161    -0.13700
C937        C  0.08615722  0.20321031  0.97922205     0.02900
C938        C  0.10547778  0.17166929  0.01472852    -0.25900
H939        H  0.24663869  0.08199868  0.04192473     0.08000
H940        H  0.15610548  0.09335827  0.04415301     0.11600
H941        H  0.26348267  0.22556832  0.98786336     0.11600
H942        H  0.18688707  0.27441117  0.96773095     0.11300
H943        H  0.09709130  0.27352909  0.94838106     0.11900
H944        H  0.08270503  0.14225368  0.02687527     0.13800
C945        C  0.65615827  0.60448595  0.69862509    -0.06200
C946        C  0.61706216  0.60114618  0.66493665    -0.06100
C947        C  0.62597444  0.58158011  0.61997906    -0.24300
C948        C  0.67322139  0.56238664  0.60992162     0.17900
C949        C  0.71286273  0.56616448  0.64382465     0.15100
C950        C  0.70501169  0.59093408  0.68627538    -0.19300
C951        C  0.75505687  0.53614399  0.63975996    -0.21200
C952        C  0.75062427  0.49528721  0.61176847    -0.13700
C953        C  0.70603556  0.48846293  0.58551376     0.02900
C954        C  0.67795406  0.52959050  0.57310399    -0.25900
H955        H  0.57933225  0.61146540  0.67433138     0.08000
H956        H  0.59474541  0.57700103  0.59527879     0.11600
H957        H  0.73472651  0.59203504  0.71321180     0.11600
H958        H  0.78630794  0.53859636  0.66479458     0.11300
H959        H  0.77634769  0.46586518  0.61849733     0.11900
H960        H  0.64709259  0.52678996  0.54757963     0.13800
C961        C  0.49494485  0.23130783  0.45078712    -0.06200
C962        C  0.47786284  0.26965592  0.47810847    -0.06100
C963        C  0.51025465  0.29099290  0.51162514    -0.24300
C964        C  0.56002141  0.27461992  0.51712941     0.17900
C965        C  0.57602280  0.23426957  0.49188004     0.15100
C966        C  0.54417965  0.21378938  0.45862836    -0.19300
C967        C  0.62555928  0.21775084  0.49796985    -0.21200
C968        C  0.66079611  0.24859120  0.51783404    -0.13700
C969        C  0.64606101  0.29580018  0.52321380     0.02900
C970        C  0.59692817  0.30082727  0.54137873    -0.25900
H971        H  0.43968842  0.28236927  0.47416673     0.08000
H972        H  0.49723857  0.32128688  0.53166261     0.11600
H973        H  0.55823164  0.18397994  0.43819851     0.11600
H974        H  0.63696991  0.18382456  0.48376875     0.11300
H975        H  0.69998884  0.24037791  0.51744600     0.11900
H976        H  0.58607010  0.33406837  0.55757188     0.13800
C977        C  0.31599654  0.25234231  0.52978999    -0.06200
C978        C  0.32325318  0.23424864  0.48372509    -0.06100
C979        C  0.28357920  0.21222624  0.45971305    -0.24300
C980        C  0.23595959  0.21092157  0.48069235     0.17900
C981        C  0.22925876  0.22723603  0.52793048     0.15100
C982        C  0.26945246  0.24645319  0.55244204    -0.19300
C983        C  0.18082778  0.22995491  0.54699892    -0.21200
C984        C  0.13980777  0.22780845  0.51533768    -0.13700
C985        C  0.14900072  0.22578089  0.46587396     0.02900
C986        C  0.19327114  0.20193294  0.45287951    -0.25900
H987        H  0.35893489  0.23774139  0.46630657     0.08000
H988        H  0.28899965  0.19987917  0.42337894     0.11600
H989        H  0.26298791  0.26093775  0.58785286     0.11600
H990        H  0.17488758  0.24012067  0.58400836     0.11300
H991        H  0.10332851  0.23838719  0.52752982     0.11900
H992        H  0.19819936  0.19386637  0.41556106     0.13800
C993        C  0.40832597  0.72039250  0.55718241    -0.06200
C994        C  0.43429831  0.74022073  0.51844427    -0.06100
C995        C  0.48165216  0.75869799  0.52601911    -0.24300
C996        C  0.50539479  0.75247430  0.57108766     0.17900
C997        C  0.48116375  0.72853684  0.60901398     0.15100
C998        C  0.43205528  0.71458899  0.60240472    -0.19300
C999        C  0.50656965  0.71872217  0.65272757    -0.21200
C1000       C  0.55407362  0.73699394  0.66052842    -0.13700
C1001       C  0.57585839  0.76514730  0.62461228     0.02900
C1002       C  0.55282593  0.77018558  0.57906386    -0.25900
H1003       H  0.41847420  0.74050303  0.48234329     0.08000
H1004       H  0.50058082  0.77579646  0.49623506     0.11600
H1005       H  0.41352257  0.69574484  0.63144684     0.11600
H1006       H  0.48865202  0.69933479  0.68168552     0.11300
H1007       H  0.57112529  0.73354195  0.69608667     0.11900
H1008       H  0.57023035  0.79146961  0.55107943     0.13800
C1009       C  0.25571128  0.99773359  0.38559956    -0.06200
C1010       C  0.27780646  0.99631492  0.33987601    -0.06100
C1011       C  0.24799503  0.98144362  0.30107615    -0.24300
C1012       C  0.20038773  0.96317142  0.31069198     0.17900
C1013       C  0.18902298  0.94940611  0.35858388     0.15100
C1014       C  0.22379028  0.95936825  0.39548818    -0.19300
C1015       C  0.14125792  0.93270459  0.36920941    -0.21200
C1016       C  0.10466490  0.93070891  0.33279851    -0.13700
C1017       C  0.11539660  0.94470670  0.28510074     0.02900
C1018       C  0.16369837  0.96069705  0.27445772    -0.25900
H1019       H  0.30993388  0.01802165  0.33213577     0.08000
H1020       H  0.25950039  0.98896992  0.26447018     0.11600
H1021       H  0.21320184  0.95262530  0.43256286     0.11600
H1022       H  0.13194900  0.92211344  0.40569705     0.11300
H1023       H  0.06886789  0.91525990  0.34110936     0.11900
H1024       H  0.17352953  0.96867709  0.23740782     0.13800
C1025       C  0.30466397  0.77772682  0.03772282    -0.06200
C1026       C  0.32812307  0.77573776  0.99274544    -0.06100
C1027       C  0.37151754  0.74748358  0.98955203    -0.24300
C1028       C  0.38760903  0.72124307  0.03072838     0.17900
C1029       C  0.35370068  0.71350535  0.06871401     0.15100
C1030       C  0.30636642  0.73516493  0.06511046    -0.19300
C1031       C  0.37053004  0.69276556  0.11243579    -0.21200
C1032       C  0.42144211  0.68329627  0.11980687    -0.13700
C1033       C  0.45531796  0.69218336  0.08272457     0.02900
C1034       C  0.43777224  0.70860747  0.03739093    -0.25900
H1035       H  0.32160186  0.80380515  0.96603761     0.08000
H1036       H  0.39563817  0.75202636  0.95880940     0.11600
H1037       H  0.28145647  0.73147769  0.09544287     0.11600
H1038       H  0.34505972  0.68708278  0.14193677     0.11300
H1039       H  0.43401188  0.66820201  0.15402803     0.11900
H1040       H  0.46382258  0.71387277  0.00821888     0.13800
C1041       C  0.75986788  0.69447552  0.53419223    -0.06200
C1042       C  0.76174822  0.72493848  0.49379738    -0.06100
C1043       C  0.71723757  0.74245131  0.47259403    -0.24300
C1044       C  0.67094296  0.72785882  0.49067097     0.17900
C1045       C  0.66936246  0.69860719  0.53234641     0.15100
C1046       C  0.71372329  0.68324253  0.55455900    -0.19300
C1047       C  0.62348430  0.68157172  0.54828551    -0.21200
C1048       C  0.58249129  0.68244872  0.51673178    -0.13700
C1049       C  0.58667152  0.70484747  0.47141176     0.02900
C1050       C  0.62669544  0.73650612  0.46449580    -0.25900
H1051       H  0.79732555  0.73551724  0.47923042     0.08000
H1052       H  0.71898805  0.76505178  0.44063244     0.11600
H1053       H  0.71248270  0.66046720  0.58651616     0.11600
H1054       H  0.62079646  0.66340551  0.58249516     0.11300
H1055       H  0.55049869  0.66080331  0.52517497     0.11900
H1056       H  0.62856355  0.75750748  0.43138931     0.13800
C1057       C  0.91229231  0.22985859  0.46920438    -0.06200
C1058       C  0.92870547  0.20579452  0.51168059    -0.06100
C1059       C  0.89349256  0.17988771  0.53782495    -0.24300
C1060       C  0.84307796  0.18292804  0.52321813     0.17900
C1061       C  0.82825135  0.21658674  0.48711800     0.15100
C1062       C  0.86358821  0.24871274  0.47015642    -0.19300
C1063       C  0.78213006  0.21194789  0.46355468    -0.21200
C1064       C  0.74968551  0.17644454  0.47862751    -0.13700
C1065       C  0.75958999  0.15163065  0.52201213     0.02900
C1066       C  0.80732561  0.15343509  0.54317830    -0.25900
H1067       H  0.96804434  0.19773800  0.51755111     0.08000
H1068       H  0.90583507  0.15534804  0.56626586     0.11600
H1069       H  0.85217422  0.27446703  0.44236266     0.11600
H1070       H  0.77194610  0.23455206  0.43284924     0.11300
H1071       H  0.71419328  0.17333966  0.46021890     0.11900
H1072       H  0.81548993  0.13462922  0.57672528     0.13800
C1073       C  0.04771595  0.33856462  0.24442679    -0.06200
C1074       C  0.99993021  0.35934640  0.23993743    -0.06100
C1075       C  0.96438895  0.33570279  0.21235260    -0.24300
C1076       C  0.97643754  0.29039645  0.19490949     0.17900
C1077       C  0.01946646  0.26585821  0.21298162     0.15100
C1078       C  0.05054115  0.28879410  0.24570863    -0.19300
C1079       C  0.03416169  0.22246334  0.19321627    -0.21200
C1080       C  0.00631993  0.20343486  0.15564667    -0.13700
C1081       C  0.96252515  0.22673388  0.13884144     0.02900
C1082       C  0.94819853  0.27059651  0.15827943    -0.25900
H1083       H  0.99478448  0.39708318  0.24567587     0.08000
H1084       H  0.93066340  0.35448922  0.20050379     0.11600
H1085       H  0.08544780  0.27140534  0.25667605     0.11600
H1086       H  0.06771956  0.20392486  0.20594534     0.11300
H1087       H  0.01739859  0.16908597  0.14189094     0.11900
H1088       H  0.91427430  0.28872399  0.14583968     0.13800
loop_ 
_geom_bond_atom_site_label_1 
_geom_bond_atom_site_label_2 
_geom_bond_distance 
_geom_bond_site_symmetry_2 
_ccdc_geom_bond_type 
O1           Ni7   1.933       .  S
O1           C22   1.274       .  A
O2          Ni25   1.924   1_556  S
O2           C11   1.295       .  A
O3           Ni7   1.876       .  S
O3          Ni25   1.887   1_645  S
O3          Ni19   1.930   1_554  S
O3           H26   0.966   1_655  S
C4           O21   1.280       .  A
C4           O13   1.281   1_545  A
C4          C591   1.491       .  S
O5          Ni24   1.924   1_455  S
O5           C11   1.275       .  A
O6          Ni24   1.927   1_445  S
O6            C8   1.269       .  A
Ni7          O10   1.914   1_645  S
Ni7          O12   1.909   1_545  S
C8           O18   1.267   1_455  A
C8          C297   1.469       .  S
O9          Ni25   2.011       .  S
O9           C15   1.297       .  A
O10          C15   1.275       .  A
C11         C581   1.475       .  S
O12          C14   1.266       .  A
O13         Ni24   1.938       .  S
C14          O20   1.292       .  A
C14         C407   1.491       .  S
C15         C133   1.514       .  S
H16          O17   0.966       .  S
O17         Ni25   1.949   1_656  S
O17         Ni19   1.892   1_565  S
O17         Ni24   1.910       .  S
O18         Ni19   1.896       .  S
Ni19         O23   1.892   1_556  S
Ni19         O21   1.941       .  S
O20         Ni25   1.999   1_655  S
C22          O23   1.264       .  A
C22          C37   1.451       .  S
C27         C172   1.493       .  S
C27          N28   1.379       .  A
C27          N32   1.349       .  A
N28          C29   1.387       .  A
C29         C642   1.505       .  S
C29          N30   1.351       .  A
N30          C31   1.362       .  A
C31        C1073   1.466       .  S
C31          N32   1.351       .  A
C33          C61   1.441       .  S
C33          N34   1.342       .  A
C33          N38   1.359       .  A
N34          C35   1.343       .  A
C35        C1081   1.458       .  S
C35          N36   1.350       .  A
N36          C37   1.354       .  A
C37          N38   1.363       .  A
C39          C58   1.508       .  S
C39          N40   1.396       .  A
C39          N44   1.342       .  A
N40          C41   1.398       .  A
C41         C492   1.513       .  S
C41          N42   1.343       .  A
N42          C43   1.346       .  A
C43        C1057   1.475       .  S
C43          N44   1.352       .  A
C45         C210   1.480       .  S
C45          N46   1.361       .  A
C45          N50   1.370       .  A
N46          C47   1.360       .  A
C47        C1065   1.453       .  S
C47          N48   1.354       .  A
N48          C49   1.345       .  A
C49         C563   1.474       .  S
C49          N50   1.361       .  A
O51         Ni57   1.945       .  S
O51          C72   1.284       .  A
O52         Ni75   1.923       .  S
O52          C61   1.266       .  A
O53         Ni57   1.923       .  S
O53         Ni75   1.895       .  S
O53         Ni69   1.950       .  S
O53          H76   0.967       .  S
C54          O71   1.285       .  A
C54          O63   1.296       .  A
C54         C371   1.514       .  S
O55         Ni74   1.921       .  S
O55          C61   1.263       .  A
O56         Ni74   1.883       .  S
O56          C58   1.255       .  A
Ni57         O60   1.935       .  S
Ni57         O62   1.967       .  S
C58          O68   1.305       .  A
O59         Ni75   1.948       .  S
O59          C65   1.283       .  A
O60          C65   1.285       .  A
O62          C64   1.273       .  A
O63         Ni74   1.973       .  S
C64          O70   1.282       .  A
C64         C545   1.529       .  S
C65         C381   1.490       .  S
H66          O67   0.966       .  S
O67         Ni75   1.956       .  S
O67         Ni69   1.880       .  S
O67         Ni74   1.870       .  S
O68         Ni69   2.022       .  S
Ni69         O73   1.918       .  S
Ni69         O71   1.960       .  S
O70         Ni75   1.947       .  S
C72          O73   1.276       .  A
C72         C243   1.482       .  S
C77         C624   1.497       .  S
C77          N78   1.383       .  A
C77          N82   1.340       .  A
N78          C79   1.392       .  A
C79          C92   1.506       .  S
C79          N80   1.365       .  A
N80          C81   1.358       .  A
C81        C1041   1.456       .  S
C81          N82   1.338       .  A
C83         C425   1.544       .  S
C83          N84   1.392       .  A
C83          N88   1.347       .  A
N84          C85   1.406       .  A
C85         C272   1.524       .  S
C85          N86   1.360       .  A
N86          C87   1.351       .  A
C87        C1049   1.480       .  S
C87          N88   1.340       .  A
O89         Ni95   1.929       .  S
O89         C110   1.274       .  A
O90        Ni113   1.914       .  S
O90          C99   1.283       .  A
O91         Ni95   1.881   1_455  S
O91        Ni113   1.895       .  S
O91        Ni107   1.941   1_455  S
O91         H114   0.966       .  S
C92         O109   1.281       .  A
C92         O101   1.285       .  A
O93        Ni112   1.979       .  S
O93          C99   1.281       .  A
O94        Ni112   1.905       .  S
O94          C96   1.267       .  A
Ni95         O98   1.939   1_655  S
Ni95        O100   1.904       .  S
C96         O106   1.287   1_455  A
C96         C309   1.469       .  S
O97        Ni113   1.970       .  S
O97         C103   1.283       .  A
O98         C103   1.285       .  A
C99         C391   1.506       .  S
O100        C102   1.260       .  A
O101       Ni112   1.973   1_655  S
C102        O108   1.298       .  A
C102        C367   1.500       .  S
C103        C239   1.512       .  S
H104        O105   0.966       .  S
O105       Ni113   1.946   1_655  S
O105       Ni107   1.930       .  S
O105       Ni112   1.941   1_655  S
O106       Ni107   1.931       .  S
Ni107       O111   1.996       .  S
Ni107       O109   1.941       .  S
O108       Ni113   1.983   1_655  S
C110        O111   1.283       .  A
C110        C535   1.531       .  S
C115        C351   1.475       .  S
C115        N116   1.368       .  A
C115        N120   1.360       .  A
N116        C117   1.362       .  A
C117        C146   1.466       .  S
C117        N118   1.349       .  A
N118        C119   1.355       .  A
C119       C1025   1.488       .  S
C119        N120   1.363       .  A
C121        C463   1.462       .  S
C121        N122   1.338       .  A
C121        N126   1.368       .  A
N122        C123   1.338       .  A
C123       C1033   1.456       .  S
C123        N124   1.363       .  A
N124        C125   1.368       .  A
C125        C429   1.488       .  S
C125        N126   1.375       .  A
C127        C179   1.482       .  S
C127        N128   1.378       .  A
C127        N132   1.361       .  A
N128        C129   1.374       .  A
C129        C493   1.474       .  S
C129        N130   1.344       .  A
N130        C131   1.348       .  A
C131       C1009   1.496   1_545  S
C131        N132   1.352       .  A
C133        N134   1.369       .  A
C133        N138   1.376       .  A
N134        C135   1.362       .  A
C135       C1017   1.465       .  S
C135        N136   1.337       .  A
N136        C137   1.338       .  A
C137        C149   1.470       .  S
C137        N138   1.381       .  A
O139       Ni145   1.895       .  S
O139        C160   1.267       .  A
O140       Ni163   1.898       .  S
O140        C149   1.271       .  A
O141       Ni145   1.871       .  S
O141       Ni163   1.870       .  S
O141       Ni157   1.922       .  S
O141        H164   0.966       .  S
C142        O159   1.285       .  A
C142        O151   1.286       .  A
C142        C509   1.487       .  S
O143       Ni162   1.970       .  S
O143        C149   1.279       .  A
O144       Ni162   1.910       .  S
O144        C146   1.260       .  A
Ni145       O148   1.979       .  S
Ni145       O150   1.896       .  S
C146        O156   1.272       .  A
O147       Ni163   1.862       .  S
O147        C153   1.271       .  A
O148        C153   1.288       .  A
O150        C152   1.251       .  A
O151       Ni162   1.952       .  S
C152        O158   1.292       .  A
C152        C393   1.497       .  S
C153        C671   1.468       .  S
H154        O155   0.966       .  S
O155       Ni163   1.920       .  S
O155       Ni157   1.908       .  S
O155       Ni162   1.921       .  S
O156       Ni157   1.933       .  S
Ni157       O161   1.930       .  S
Ni157       O159   1.947       .  S
O158       Ni163   2.009       .  S
C160        O161   1.269       .  A
C160        C441   1.454       .  S
O165       Ni171   1.941       .  S
O165        C186   1.271       .  A
O166       Ni189   1.911       .  S
O166        C175   1.281       .  A
O167       Ni171   1.896       .  S
O167       Ni189   1.895       .  S
O167       Ni183   1.904       .  S
O167        H190   0.966       .  S
C168        O185   1.272       .  A
C168        O177   1.289       .  A
C168        C447   1.484       .  S
O169       Ni188   1.999       .  S
O169        C175   1.287       .  A
O170       Ni188   1.924       .  S
O170        C172   1.271       .  A
Ni171       O174   1.915       .  S
Ni171       O176   1.906       .  S
C172        O182   1.290       .  A
O173       Ni189   1.956       .  S
O173        C179   1.288       .  A
O174        C179   1.279       .  A
C175        C235   1.510       .  S
O176        C178   1.269       .  A
O177       Ni188   1.965       .  S
C178        O184   1.285       .  A
C178        C247   1.497       .  S
H180        O181   0.966       .  S
O181       Ni189   1.911       .  S
O181       Ni183   1.903       .  S
O181       Ni188   1.904       .  S
O182       Ni183   1.978       .  S
Ni183       O187   1.918       .  S
Ni183       O185   1.920       .  S
O184       Ni189   1.979       .  S
C186        O187   1.283       .  A
C186        C291   1.482       .  S
C191        C610   1.485       .  S
C191        N192   1.382       .  A
C191        N196   1.359       .  A
N192        C193   1.374       .  A
C193        C206   1.488       .  S
C193        N194   1.336       .  A
N194        C195   1.345       .  A
C195       C1001   1.450       .  S
C195        N196   1.355       .  A
C197        C286   1.479       .  S
C197        N198   1.373       .  A
C197        N202   1.347       .  A
N198        C199   1.377       .  A
C199        C689   1.471       .  S
C199        N200   1.353       .  A
N200        C201   1.350       .  A
C201        C993   1.450       .  S
C201        N202   1.340       .  A
O203       Ni209   1.925       .  S
O203        C224   1.268       .  A
O204       Ni227   1.921       .  S
O204        C213   1.277       .  A
O205       Ni209   1.880   1_545  S
O205       Ni227   1.876       .  S
O205       Ni221   1.943   1_545  S
O205        H228   0.966       .  S
C206        O223   1.289       .  A
C206        O215   1.288       .  A
O207       Ni226   1.940       .  S
O207        C213   1.270       .  A
O208       Ni226   1.888       .  S
O208        C210   1.263       .  A
Ni209       O212   1.937   1_565  S
Ni209       O214   1.892       .  S
C210        O220   1.280       .  A
O211       Ni227   1.929       .  S
O211        C217   1.281       .  A
O212        C217   1.286       .  A
C213        C657   1.454       .  S
O214        C216   1.258       .  A
O215       Ni226   1.960   1_565  S
C216        O222   1.288       .  A
C216        C505   1.481       .  S
C217        C251   1.461       .  S
H218        O219   0.966       .  S
O219       Ni227   1.938   1_565  S
O219       Ni221   1.892       .  S
O219       Ni226   1.896   1_565  S
O220       Ni221   1.958   1_545  S
Ni221       O225   1.940       .  S
Ni221       O223   1.943       .  S
O222       Ni227   1.969   1_565  S
C224        O225   1.277       .  A
C224        C387   1.459       .  S
C229        C278   1.507       .  S
C229        N230   1.368       .  A
C229        N234   1.387       .  A
N230        C231   1.365       .  A
C231        C977   1.471       .  S
C231        N232   1.342       .  A
N232        C233   1.338       .  A
C233        C329   1.493       .  S
C233        N234   1.374       .  A
C235        N236   1.346       .  A
C235        N240   1.387       .  A
N236        C237   1.344       .  A
C237        C985   1.489       .  S
C237        N238   1.353       .  A
N238        C239   1.365       .  A
C239        N240   1.393       .  A
C241        C275   1.440       .  S
C241        N242   1.351       .  A
C241        N246   1.336       .  A
N242        C243   1.359       .  A
C243        N244   1.372       .  A
N244        C245   1.377       .  A
C245        C969   1.500       .  S
C245        N246   1.346       .  A
C247        N248   1.379       .  A
C247        N252   1.379       .  A
N248        C249   1.372       .  A
C249        C961   1.479       .  S
C249        N250   1.338       .  A
N250        C251   1.328       .  A
C251        N252   1.361       .  A
C253        C617   1.449       .  S
C253        N254   1.349       .  A
C253        N258   1.353       .  A
N254        C255   1.349       .  A
C255        C945   1.461       .  S
C255        N256   1.361       .  A
N256        C257   1.361       .  A
C257        C467   1.469       .  S
C257        N258   1.362       .  A
C259        C279   1.450       .  S
C259        N260   1.348       .  A
C259        N264   1.359       .  A
N260        C261   1.349       .  A
C261        C953   1.486       .  S
C261        N262   1.357       .  A
N262        C263   1.363       .  A
C263        C567   1.456       .  S
C263        N264   1.363       .  A
O265       Ni271   1.964       .  S
O265        C286   1.283       .  A
O266       Ni289   1.887       .  S
O266        C275   1.275       .  A
O267       Ni271   1.895       .  S
O267       Ni289   1.880       .  S
O267       Ni283   1.902       .  S
O267        H290   0.966       .  S
C268        O285   1.273       .  A
C268        O277   1.264       .  A
C268        C443   1.445       .  S
O269       Ni288   1.905       .  S
O269        C275   1.264       .  A
O270       Ni288   1.951       .  S
O270        C272   1.273       .  A
Ni271       O274   1.945       .  S
Ni271       O276   1.914       .  S
C272        O282   1.292       .  A
O273       Ni289   1.890       .  S
O273        C279   1.268       .  A
O274        C279   1.283       .  A
O276        C278   1.271       .  A
O277       Ni288   1.892       .  S
C278        O284   1.295       .  A
H280        O281   0.967       .  S
O281       Ni289   1.889       .  S
O281       Ni283   1.897       .  S
O281       Ni288   1.919       .  S
O282       Ni283   1.979       .  S
Ni283       O287   1.890       .  S
Ni283       O285   1.922       .  S
O284       Ni289   1.986       .  S
C286        O287   1.278       .  A
C291        N292   1.374       .  A
C291        N296   1.339       .  A
N292        C293   1.380       .  A
C293        C348   1.499       .  S
C293        N294   1.364       .  A
N294        C295   1.362       .  A
C295        C929   1.454       .  S
C295        N296   1.343       .  A
C297        N298   1.370       .  A
C297        N302   1.359       .  A
N298        C299   1.368       .  A
C299        C318   1.470       .  S
C299        N300   1.352       .  A
N300        C301   1.346       .  A
C301        C937   1.475       .  S
C301        N302   1.348       .  A
C303        C336   1.517       .  S
C303        N304   1.367       .  A
C303        N308   1.399       .  A
N304        C305   1.355       .  A
C305        C921   1.481   1_455  S
C305        N306   1.337       .  A
N306        C307   1.341       .  A
C307        C643   1.511       .  S
C307        N308   1.389       .  A
C309        N310   1.331       .  A
C309        N314   1.368       .  A
N310        C311   1.333       .  A
C311        C913   1.478   1_455  S
C311        N312   1.363       .  A
N312        C313   1.374       .  A
C313        C693   1.489       .  S
C313        N314   1.379       .  A
O315       Ni321   1.992       .  S
O315        C336   1.283       .  A
O316       Ni339   1.952       .  S
O316        C325   1.285       .  A
O317       Ni321   1.923       .  S
O317       Ni339   1.907       .  S
O317       Ni333   1.889       .  S
O317        H340   0.966       .  S
C318        O335   1.264       .  A
C318        O327   1.273       .  A
O319       Ni338   1.921       .  S
O319        C325   1.273       .  A
O320       Ni338   1.902       .  S
O320        C322   1.266       .  A
Ni321       O324   1.965       .  S
Ni321       O326   1.899       .  S
C322        O332   1.293       .  A
C322        C529   1.487       .  S
O323       Ni339   1.931       .  S
O323        C329   1.286       .  A
O324        C329   1.285       .  A
C325        C655   1.491       .  S
O326        C328   1.269       .  A
O327       Ni338   1.952       .  S
C328        O334   1.285       .  A
C328        C517   1.480       .  S
H330        O331   0.966       .  S
O331       Ni339   1.941       .  S
O331       Ni333   1.908       .  S
O331       Ni338   1.937       .  S
O332       Ni333   1.971       .  S
Ni333       O337   1.923       .  S
Ni333       O335   1.873       .  S
O334       Ni339   1.967       .  S
C336        O337   1.278       .  A
O341       Ni347   1.988   1_545  S
O341        C362   1.283       .  A
O342       Ni365   1.925   1_554  S
O342        C351   1.284       .  A
O343       Ni347   1.909       .  S
O343       Ni365   1.911       .  S
O343       Ni359   1.915   1_565  S
O343        H366   0.966   1_565  S
C344        O361   1.280       .  A
C344        O353   1.275       .  A
C344        C379   1.478       .  S
O345       Ni364   1.927       .  S
O345        C351   1.276       .  A
O346       Ni364   1.937   1_545  S
O346        C348   1.273       .  A
Ni347       O350   1.941       .  S
Ni347       O352   1.911       .  S
C348        O358   1.286       .  A
O349       Ni365   1.948       .  S
O349        C355   1.280       .  A
O350        C355   1.285       .  A
O352        C354   1.273       .  A
O353       Ni364   1.925   1_545  S
C354        O360   1.289       .  A
C354        C409   1.483       .  S
C355        C661   1.492       .  S
H356        O357   0.966       .  S
O357       Ni365   1.924   1_554  S
O357       Ni359   1.883   1_564  S
O357       Ni364   1.887       .  S
O358       Ni359   1.962   1_554  S
Ni359       O363   1.890       .  S
Ni359       O361   1.956   1_556  S
O360       Ni365   1.976       .  S
C362        O363   1.272       .  A
C362        C523   1.493       .  S
C367        N368   1.336       .  A
C367        N372   1.389       .  A
N368        C369   1.340       .  A
C369        C897   1.444       .  S
C369        N370   1.356       .  A
N370        C371   1.363       .  A
C371        N372   1.390       .  A
C373        C428   1.484       .  S
C373        N374   1.351       .  A
C373        N378   1.397       .  A
N374        C375   1.347       .  A
C375        C905   1.474       .  S
C375        N376   1.341       .  A
N376        C377   1.341       .  A
C377        C632   1.516       .  S
C377        N378   1.388       .  A
C379        N380   1.378       .  A
C379        N384   1.350       .  A
N380        C381   1.378       .  A
C381        N382   1.355       .  A
N382        C383   1.351       .  A
C383        C889   1.490       .  S
C383        N384   1.348       .  A
C385        C422   1.487       .  S
C385        N386   1.371       .  A
C385        N390   1.367       .  A
N386        C387   1.365       .  A
C387        N388   1.342       .  A
N388        C389   1.345       .  A
C389        C881   1.478       .  S
C389        N390   1.363       .  A
C391        N392   1.394       .  A
C391        N396   1.358       .  A
N392        C393   1.391       .  A
C393        N394   1.356       .  A
N394        C395   1.348       .  A
C395        C865   1.494       .  S
C395        N396   1.348       .  A
C397        C500   1.505       .  S
C397        N398   1.393       .  A
C397        N402   1.357       .  A
N398        C399   1.389       .  A
C399        C418   1.500       .  S
C399        N400   1.340       .  A
N400        C401   1.342       .  A
C401        C873   1.445       .  S
C401        N402   1.350       .  A
C403        C436   1.487       .  S
C403        N404   1.357       .  A
C403        N408   1.384       .  A
N404        C405   1.346       .  A
C405        C849   1.493   1_565  S
C405        N406   1.347       .  A
N406        C407   1.359       .  A
C407        N408   1.381       .  A
C409        N410   1.342       .  A
C409        N414   1.379       .  A
N410        C411   1.345       .  A
C411        C857   1.463   1_556  S
C411        N412   1.362       .  A
N412        C413   1.363       .  A
C413        C613   1.502       .  S
C413        N414   1.382       .  A
O415       Ni421   1.993       .  S
O415        C436   1.283       .  A
O416       Ni439   2.004       .  S
O416        C425   1.296       .  A
O417       Ni421   1.919       .  S
O417       Ni439   1.921       .  S
O417       Ni433   1.921       .  S
O417        H440   0.966       .  S
C418        O435   1.280       .  A
C418        O427   1.282       .  A
O419       Ni438   1.925       .  S
O419        C425   1.284       .  A
O420       Ni438   1.921       .  S
O420        C422   1.270       .  A
Ni421       O424   1.943       .  S
Ni421       O426   1.896       .  S
C422        O432   1.275       .  A
O423       Ni439   1.948       .  S
O423        C429   1.285       .  A
O424        C429   1.281       .  A
O426        C428   1.269       .  A
O427       Ni438   1.951       .  S
C428        O434   1.301       .  A
H430        O431   0.966       .  S
O431       Ni439   1.960       .  S
O431       Ni433   1.897       .  S
O431       Ni438   1.897       .  S
O432       Ni433   1.940       .  S
Ni433       O437   1.873       .  S
Ni433       O435   1.959       .  S
O434       Ni439   1.999       .  S
C436        O437   1.264       .  A
C441        N442   1.355       .  A
C441        N446   1.372       .  A
N442        C443   1.329       .  A
C443        N444   1.340       .  A
N444        C445   1.352       .  A
C445        C841   1.482       .  S
C445        N446   1.372       .  A
C447        N448   1.375       .  A
C447        N452   1.361       .  A
N448        C449   1.371       .  A
C449        C456   1.472       .  S
C449        N450   1.349       .  A
N450        C451   1.347       .  A
C451        C833   1.469       .  S
C451        N452   1.359       .  A
O453       Ni459   1.969       .  S
O453        C474   1.283       .  A
O454       Ni477   1.912       .  S
O454        C463   1.279   1_556  A
O455       Ni459   1.921       .  S
O455       Ni477   1.896       .  S
O455       Ni471   1.924       .  S
O455        H478   0.966       .  S
C456        O473   1.287       .  A
C456        O465   1.270       .  A
O457       Ni476   1.931       .  S
O457        C463   1.272       .  A
O458       Ni476   1.959       .  S
O458        C460   1.275       .  A
Ni459       O462   1.954       .  S
Ni459       O464   1.928       .  S
C460        O470   1.295   1_554  A
C460        C541   1.536       .  S
O461       Ni477   1.889       .  S
O461        C467   1.272       .  A
O462        C467   1.284       .  A
O464        C466   1.273       .  A
O465       Ni476   1.922       .  S
C466        O472   1.286       .  A
C466        C675   1.501       .  S
H468        O469   0.966       .  S
O469       Ni477   1.895       .  S
O469       Ni471   1.871       .  S
O469       Ni476   1.866   1_556  S
O470       Ni471   1.992       .  S
Ni471       O475   1.883       .  S
Ni471       O473   1.973   1_556  S
O472       Ni477   1.978       .  S
C474        O475   1.276       .  A
C474        C519   1.473       .  S
O479       Ni485   1.980   1_655  S
O479        C500   1.284       .  A
O480       Ni503   1.926       .  S
O480        C489   1.283       .  A
O481       Ni485   1.930       .  S
O481       Ni503   1.916   1_565  S
O481       Ni497   1.919   1_455  S
O481        H504   0.966       .  S
C482        O499   1.274       .  A
C482        O491   1.281       .  A
C482        C599   1.443       .  S
O483       Ni502   1.967   1_545  S
O483        C489   1.279       .  A
O484       Ni502   1.919       .  S
O484        C486   1.269       .  A
Ni485       O488   1.972   1_565  S
Ni485       O490   1.924   1_465  S
C486        O496   1.296       .  A
C486        C513   1.514       .  S
O487       Ni503   1.903       .  S
O487        C493   1.268       .  A
O488        C493   1.289       .  A
C489        C533   1.500       .  S
O490        C492   1.266       .  A
O491       Ni502   1.930   1_655  S
C492        O498   1.299       .  A
H494        O495   0.967       .  S
O495       Ni503   1.901   1_655  S
O495       Ni497   1.900   1_545  S
O495       Ni502   1.927   1_645  S
O496       Ni497   1.989   1_455  S
Ni497       O501   1.933       .  S
Ni497       O499   1.893       .  S
O498       Ni503   1.987   1_655  S
C500        O501   1.280       .  A
C505        N506   1.353       .  A
C505        N510   1.385       .  A
N506        C507   1.352       .  A
C507        C817   1.459       .  S
C507        N508   1.348       .  A
N508        C509   1.340       .  A
C509        N510   1.374       .  A
C511        C692   1.513       .  S
C511        N512   1.389       .  A
C511        N516   1.344       .  A
N512        C513   1.396       .  A
C513        N514   1.355       .  A
N514        C515   1.354       .  A
C515        C825   1.441       .  S
C515        N516   1.342       .  A
C517        N518   1.377       .  A
C517        N522   1.379       .  A
N518        C519   1.358       .  A
C519        N520   1.331       .  A
N520        C521   1.342       .  A
C521        C809   1.491       .  S
C521        N522   1.369       .  A
C523        N524   1.336       .  A
C523        N528   1.367       .  A
N524        C525   1.346       .  A
C525        C801   1.494   1_556  S
C525        N526   1.364       .  A
N526        C527   1.374       .  A
C527        C560   1.493       .  S
C527        N528   1.385       .  A
C529        N530   1.350       .  A
C529        N534   1.387       .  A
N530        C531   1.342       .  A
C531        C785   1.435       .  S
C531        N532   1.348       .  A
N532        C533   1.346       .  A
C533        N534   1.381       .  A
C535        N536   1.364       .  A
C535        N540   1.398       .  A
N536        C537   1.350       .  A
C537        C793   1.495       .  S
C537        N538   1.335       .  A
N538        C539   1.352       .  A
C539        C566   1.494       .  S
C539        N540   1.404       .  A
C541        N542   1.372       .  A
C541        N546   1.404       .  A
N542        C543   1.363       .  A
C543        C769   1.472       .  S
C543        N544   1.339       .  A
N544        C545   1.339       .  A
C545        N546   1.392       .  A
C547        C639   1.462       .  S
C547        N548   1.353       .  A
C547        N552   1.362       .  A
N548        C549   1.358       .  A
C549        C777   1.500       .  S
C549        N550   1.355       .  A
N550        C551   1.352       .  A
C551        C574   1.459       .  S
C551        N552   1.357       .  A
O553       Ni559   1.948       .  S
O553        C574   1.273       .  A
O554       Ni577   1.930       .  S
O554        C563   1.283       .  A
O555       Ni559   1.931       .  S
O555       Ni577   1.903       .  S
O555       Ni571   1.916       .  S
O555        H578   0.966       .  S
C556        O573   1.274       .  A
C556        O565   1.266       .  A
C556        C595   1.465       .  S
O557       Ni576   1.931       .  S
O557        C563   1.273       .  A
O558       Ni576   1.896       .  S
O558        C560   1.266       .  A
Ni559       O562   1.930       .  S
Ni559       O564   1.915       .  S
C560        O570   1.289       .  A
O561       Ni577   1.914       .  S
O561        C567   1.277       .  A
O562        C567   1.283       .  A
O564        C566   1.263       .  A
O565       Ni576   1.935       .  S
C566        O572   1.295       .  A
H568        O569   0.967       .  S
O569       Ni577   1.905       .  S
O569       Ni571   1.887       .  S
O569       Ni576   1.916       .  S
O570       Ni571   1.994       .  S
Ni571       O575   1.873       .  S
Ni571       O573   1.949       .  S
O572       Ni577   1.965       .  S
C574        O575   1.265       .  A
C579        C700   1.497       .  S
C579        N580   1.373       .  A
C579        N584   1.357       .  A
N580        C581   1.372       .  A
C581        N582   1.345       .  A
N582        C583   1.354       .  A
C583        C761   1.491   1_556  S
C583        N584   1.366       .  A
C585        C616   1.509       .  S
C585        N586   1.365       .  A
C585        N590   1.390       .  A
N586        C587   1.362       .  A
C587        C753   1.459   1_655  S
C587        N588   1.346       .  A
N588        C589   1.345       .  A
C589        C636   1.508       .  S
C589        N590   1.381       .  A
C591        N592   1.366       .  A
C591        N596   1.378       .  A
N592        C593   1.357       .  A
C593        C745   1.458       .  S
C593        N594   1.337       .  A
N594        C595   1.345       .  A
C595        N596   1.372       .  A
C597        C606   1.469       .  S
C597        N598   1.358       .  A
C597        N602   1.359       .  A
N598        C599   1.363       .  A
C599        N600   1.351       .  A
N600        C601   1.348       .  A
C601        C737   1.498       .  S
C601        N602   1.361       .  A
O603       Ni609   1.975       .  S
O603        C624   1.279       .  A
O604       Ni627   1.965       .  S
O604        C613   1.287       .  A
O605       Ni609   1.934       .  S
O605       Ni627   1.937       .  S
O605       Ni621   1.890       .  S
O605        H628   0.966       .  S
C606        O623   1.264       .  A
C606        O615   1.267       .  A
O607       Ni626   1.921       .  S
O607        C613   1.268       .  A
O608       Ni626   1.896       .  S
O608        C610   1.268       .  A
Ni609       O612   1.914       .  S
Ni609       O614   1.899       .  S
C610        O620   1.291       .  A
O611       Ni627   1.926       .  S
O611        C617   1.265       .  A
O612        C617   1.261       .  A
O614        C616   1.275       .  A
O615       Ni626   1.922       .  S
C616        O622   1.308       .  A
H618        O619   0.966       .  S
O619       Ni627   1.939       .  S
O619       Ni621   1.938       .  S
O619       Ni626   1.949       .  S
O620       Ni621   1.986       .  S
Ni621       O625   1.913       .  S
Ni621       O623   1.913       .  S
O622       Ni627   2.032       .  S
C624        O625   1.278       .  A
O629       Ni635   1.984       .  S
O629        C650   1.287       .  A
O630       Ni653   1.879   1_656  S
O630        C639   1.282       .  A
O631       Ni635   1.910       .  S
O631       Ni653   1.863       .  S
O631       Ni647   1.934   1_455  S
O631        H654   0.966   1_554  S
C632        O649   1.290       .  A
C632        O641   1.286       .  A
O633       Ni652   1.960   1_556  S
O633        C639   1.289       .  A
O634       Ni652   1.937   1_556  S
O634        C636   1.271       .  A
Ni635       O638   1.994   1_554  S
Ni635       O640   1.902       .  S
C636        O646   1.283   1_556  A
O637       Ni653   1.929   1_556  S
O637        C643   1.276       .  A
O638        C643   1.288       .  A
O640        C642   1.265       .  A
O641       Ni652   1.989       .  S
C642        O648   1.307       .  A
H644        O645   0.967       .  S
O645       Ni653   1.929   1_655  S
O645       Ni647   1.834       .  S
O645       Ni652   1.925       .  S
O646       Ni647   1.951       .  S
Ni647       O651   1.854   1_655  S
Ni647       O649   1.919       .  S
O648       Ni653   2.006       .  S
C650        O651   1.270       .  A
C650        C667   1.461       .  S
C655        N656   1.375       .  A
C655        N660   1.370       .  A
N656        C657   1.373       .  A
C657        N658   1.335       .  A
N658        C659   1.334       .  A
C659        C729   1.453   1_545  S
C659        N660   1.359       .  A
C661        N662   1.355       .  A
C661        N666   1.384       .  A
N662        C663   1.348       .  A
C663        C721   1.497       .  S
C663        N664   1.346       .  A
N664        C665   1.355       .  A
C665        C682   1.499       .  S
C665        N666   1.384       .  A
C667        N668   1.352       .  A
C667        N672   1.382       .  A
N668        C669   1.333       .  A
C669        C705   1.485       .  S
C669        N670   1.339       .  A
N670        C671   1.361       .  A
C671        N672   1.381       .  A
C673        C686   1.503       .  S
C673        N674   1.388       .  A
C673        N678   1.342       .  A
N674        C675   1.385       .  A
C675        N676   1.351       .  A
N676        C677   1.351       .  A
C677        C713   1.443       .  S
C677        N678   1.352       .  A
O679       Ni685   1.956       .  S
O679        C700   1.283       .  A
O680       Ni703   1.938       .  S
O680        C689   1.275       .  A
O681       Ni685   1.911       .  S
O681       Ni703   1.896       .  S
O681       Ni697   1.932       .  S
O681        H704   0.966       .  S
C682        O699   1.283       .  A
C682        O691   1.286       .  A
O683       Ni702   1.930       .  S
O683        C689   1.265       .  A
O684       Ni702   1.889       .  S
O684        C686   1.260       .  A
Ni685       O688   1.950       .  S
Ni685       O690   1.950       .  S
C686        O696   1.303       .  A
O687       Ni703   1.939       .  S
O687        C693   1.282       .  A
O688        C693   1.286       .  A
O690        C692   1.272       .  A
O691       Ni702   1.922       .  S
C692        O698   1.288       .  A
H694        O695   0.966       .  S
O695       Ni703   1.934       .  S
O695       Ni697   1.903       .  S
O695       Ni702   1.897       .  S
O696       Ni697   2.006       .  S
Ni697       O701   1.930       .  S
Ni697       O699   1.962       .  S
O698       Ni703   1.959       .  S
C700        O701   1.288       .  A
C705        C706   1.411       .  A
C705        C710   1.407       .  A
C706        C707   1.389   1_554  A
C706        H715   1.084   1_554  S
C707        C708   1.397       .  A
C707        H716   1.084       .  S
C708        C714   1.389       .  A
C708        C709   1.411   1_556  A
C709        C711   1.399       .  A
C709        C710   1.385       .  A
C710        H717   1.083       .  S
C711        C712   1.387       .  A
C711        H718   1.083       .  S
C712        C713   1.400   1_554  A
C712        H719   1.084       .  S
C713        C714   1.399       .  A
C714        H720   1.085       .  S
C721        C722   1.410       .  A
C721        C726   1.409       .  A
C722        C723   1.406       .  A
C722        H731   1.083       .  S
C723        C724   1.409       .  A
C723        H732   1.083       .  S
C724        C730   1.398       .  A
C724        C725   1.416       .  A
C725        C727   1.401       .  A
C725        C726   1.404       .  A
C726        H733   1.084       .  S
C727        C728   1.397       .  A
C727        H734   1.084       .  S
C728        C729   1.405       .  A
C728        H735   1.084       .  S
C729        C730   1.405       .  A
C730        H736   1.085       .  S
C737        C738   1.410   1_565  A
C737        C742   1.397       .  A
C738        C739   1.405       .  A
C738        H747   1.083       .  S
C739        C740   1.407       .  A
C739        H748   1.080       .  S
C740        C746   1.400       .  A
C740        C741   1.417   1_545  A
C741        C743   1.399       .  A
C741        C742   1.402       .  A
C742        H749   1.068       .  S
C743        C744   1.394       .  A
C743        H750   1.083       .  S
C744        C745   1.403   1_565  A
C744        H751   1.084       .  S
C745        C746   1.404       .  A
C746        H752   1.084       .  S
C753        C754   1.403       .  A
C753        C758   1.408       .  A
C754        C755   1.390       .  A
C754        H763   1.084       .  S
C755        C756   1.398       .  A
C755        H764   1.084       .  S
C756        C762   1.401       .  A
C756        C757   1.415   1_556  A
C757        C759   1.411       .  A
C757        C758   1.406   1_554  A
C758        H765   1.084   1_456  S
C759        C760   1.412       .  A
C759        H766   1.083       .  S
C760        C761   1.416       .  A
C760        H767   1.083       .  S
C761        C762   1.401   1_554  A
C762        H768   1.086       .  S
C769        C770   1.403   1_554  A
C769        C774   1.409       .  A
C770        C771   1.404       .  A
C770        H779   1.078       .  S
C771        C772   1.402       .  A
C771        H780   1.080       .  S
C772        C778   1.411       .  A
C772        C773   1.412   1_556  A
C773        C775   1.405       .  A
C773        C774   1.396       .  A
C774        H781   1.085       .  S
C775        C776   1.405       .  A
C775        H782   1.082       .  S
C776        C777   1.407   1_554  A
C776        H783   1.083       .  S
C777        C778   1.413       .  A
C778        H784   1.082       .  S
C785        C786   1.392       .  A
C785        C790   1.399   1_455  A
C786        C787   1.384   1_455  A
C786        H795   1.081       .  S
C787        C788   1.397       .  A
C787        H796   1.072       .  S
C788        C794   1.384       .  A
C788        C789   1.408       .  A
C789        C791   1.400       .  A
C789        C790   1.390       .  A
C790        H797   1.085       .  S
C791        C792   1.395       .  A
C791        H798   1.084       .  S
C792        C793   1.415       .  A
C792        H799   1.083       .  S
C793        C794   1.403       .  A
C794        H800   1.077       .  S
C801        C802   1.403       .  A
C801        C806   1.411       .  A
C802        C803   1.408       .  A
C802        H811   1.079   1_554  S
C803        C804   1.412       .  A
C803        H812   1.074       .  S
C804        C810   1.398       .  A
C804        C805   1.404       .  A
C805        C807   1.410       .  A
C805        C806   1.396       .  A
C806        H813   1.074       .  S
C807        C808   1.408   1_554  A
C807        H814   1.074       .  S
C808        C809   1.400       .  A
C808        H815   1.083       .  S
C809        C810   1.418   1_556  A
C810        H816   1.081       .  S
C817        C818   1.402       .  A
C817        C822   1.408       .  A
C818        C819   1.388       .  A
C818        H827   1.083       .  S
C819        C820   1.401       .  A
C819        H828   1.084       .  S
C820        C826   1.375       .  A
C820        C821   1.408       .  A
C821        C823   1.408       .  A
C821        C822   1.385       .  A
C822        H829   1.085       .  S
C823        C824   1.398       .  A
C823        H830   1.084       .  S
C824        C825   1.396       .  A
C824        H831   1.083       .  S
C825        C826   1.402       .  A
C826        H832   1.087       .  S
C833        C834   1.398       .  A
C833        C838   1.407       .  A
C834        C835   1.403       .  A
C834        H843   1.083       .  S
C835        C836   1.411       .  A
C835        H844   1.083       .  S
C836        C842   1.396       .  A
C836        C837   1.405       .  A
C837        C839   1.407       .  A
C837        C838   1.386       .  A
C838        H845   1.072       .  S
C839        C840   1.397       .  A
C839        H846   1.083       .  S
C840        C841   1.396       .  A
C840        H847   1.077       .  S
C841        C842   1.417       .  A
C842        H848   1.076       .  S
C849        C850   1.408       .  A
C849        C854   1.400       .  A
C850        C851   1.405   1_545  A
C850        H859   1.083   1_545  S
C851        C852   1.410       .  A
C851        H860   1.084       .  S
C852        C858   1.393       .  A
C852        C853   1.419   1_565  A
C853        C855   1.401       .  A
C853        C854   1.399       .  A
C854        H861   1.074       .  S
C855        C856   1.395   1_545  A
C855        H862   1.084       .  S
C856        C857   1.403       .  A
C856        H863   1.083   1_554  S
C857        C858   1.406       .  A
C858        H864   1.085       .  S
C865        C866   1.414       .  A
C865        C870   1.410       .  A
C866        C867   1.390   1_455  A
C866        H875   1.084       .  S
C867        C868   1.397   1_655  A
C867        H876   1.084       .  S
C868        C874   1.387   1_455  A
C868        C869   1.410       .  A
C869        C871   1.402       .  A
C869        C870   1.392       .  A
C870        H877   1.077       .  S
C871        C872   1.394       .  A
C871        H878   1.082       .  S
C872        C873   1.398   1_455  A
C872        H879   1.082       .  S
C873        C874   1.398       .  A
C874        H880   1.086       .  S
C881        C882   1.405       .  A
C881        C886   1.412   1_565  A
C882        C883   1.401       .  A
C882        H891   1.083       .  S
C883        C884   1.404   1_565  A
C883        H892   1.083       .  S
C884        C890   1.404       .  A
C884        C885   1.411       .  A
C885        C887   1.407       .  A
C885        C886   1.396       .  A
C886        H893   1.085       .  S
C887        C888   1.401       .  A
C887        H894   1.084       .  S
C888        C889   1.408       .  A
C888        H895   1.083       .  S
C889        C890   1.412       .  A
C890        H896   1.085       .  S
C897        C898   1.404       .  A
C897        C902   1.400       .  A
C898        C899   1.391       .  A
C898        H907   1.084       .  S
C899        C900   1.397       .  A
C899        H908   1.084       .  S
C900        C906   1.400       .  A
C900        C901   1.418       .  A
C901        C903   1.405       .  A
C901        C902   1.396       .  A
C902        H909   1.084       .  S
C903        C904   1.404       .  A
C903        H910   1.084   1_655  S
C904        C905   1.410       .  A
C904        H911   1.083   1_655  S
C905        C906   1.401       .  A
C906        H912   1.085       .  S
C913        C914   1.400       .  A
C913        C918   1.417       .  A
C914        C915   1.402       .  A
C914        H923   1.083       .  S
C915        C916   1.410       .  A
C915        H924   1.084       .  S
C916        C922   1.392       .  A
C916        C917   1.406       .  A
C917        C919   1.408       .  A
C917        C918   1.384       .  A
C918        H925   1.084       .  S
C919        C920   1.397       .  A
C919        H926   1.084       .  S
C920        C921   1.402       .  A
C920        H927   1.083   1_655  S
C921        C922   1.415       .  A
C922        H928   1.083       .  S
C929        C930   1.403       .  A
C929        C934   1.407   1_554  A
C930        C931   1.392       .  A
C930        H939   1.084       .  S
C931        C932   1.399       .  A
C931        H940   1.084       .  S
C932        C938   1.398       .  A
C932        C933   1.415   1_554  A
C933        C935   1.407       .  A
C933        C934   1.401       .  A
C934        H941   1.085       .  S
C935        C936   1.404       .  A
C935        H942   1.083       .  S
C936        C937   1.410       .  A
C936        H943   1.083       .  S
C937        C938   1.402   1_556  A
C938        H944   1.086       .  S
C945        C946   1.399       .  A
C945        C950   1.405       .  A
C946        C947   1.394       .  A
C946        H955   1.083       .  S
C947        C948   1.401       .  A
C947        H956   1.084       .  S
C948        C954   1.394       .  A
C948        C949   1.415       .  A
C949        C951   1.407       .  A
C949        C950   1.395       .  A
C950        H957   1.085       .  S
C951        C952   1.403       .  A
C951        H958   1.084       .  S
C952        C953   1.407       .  A
C952        H959   1.080       .  S
C953        C954   1.404       .  A
C954        H960   1.085       .  S
C961        C962   1.403       .  A
C961        C966   1.413       .  A
C962        C963   1.410       .  A
C962        H971   1.081       .  S
C963        C964   1.409       .  A
C963        H972   1.081       .  S
C964        C970   1.411       .  A
C964        C965   1.408       .  A
C965        C967   1.406       .  A
C965        C966   1.386       .  A
C966        H973   1.085       .  S
C967        C968   1.404       .  A
C967        H974   1.080       .  S
C968        C969   1.390       .  A
C968        H975   1.071       .  S
C969        C970   1.421       .  A
C970        H976   1.081       .  S
C977        C978   1.399       .  A
C977        C982   1.414       .  A
C978        C979   1.403       .  A
C978        H987   1.081       .  S
C979        C980   1.409       .  A
C979        H988   1.083       .  S
C980        C986   1.399       .  A
C980        C981   1.409       .  A
C981        C983   1.409       .  A
C981        C982   1.386       .  A
C982        H989   1.085       .  S
C983        C984   1.399       .  A
C983        H990   1.084       .  S
C984        C985   1.399       .  A
C984        H991   1.077       .  S
C985        C986   1.407       .  A
C986        H992   1.073       .  S
C993        C994   1.400       .  A
C993        C998   1.404       .  A
C994        C995   1.391       .  A
C994       H1003   1.082       .  S
C995        C996   1.402       .  A
C995       H1004   1.084       .  S
C996       C1002   1.387       .  A
C996        C997   1.409       .  A
C997        C999   1.403       .  A
C997        C998   1.388       .  A
C998       H1005   1.086       .  S
C999       C1000   1.394       .  A
C999       H1006   1.084       .  S
C1000      C1001   1.400       .  A
C1000      H1007   1.083       .  S
C1001      C1002   1.402       .  A
C1002      H1008   1.086       .  S
C1009      C1010   1.408       .  A
C1009      C1014   1.411       .  A
C1010      C1011   1.404       .  A
C1010      H1019   1.083   1_565  S
C1011      C1012   1.408       .  A
C1011      H1020   1.083       .  S
C1012      C1018   1.399       .  A
C1012      C1013   1.415       .  A
C1013      C1015   1.402       .  A
C1013      C1014   1.409       .  A
C1014      H1021   1.085       .  S
C1015      C1016   1.400       .  A
C1015      H1022   1.083       .  S
C1016      C1017   1.408       .  A
C1016      H1023   1.084       .  S
C1017      C1018   1.408       .  A
C1018      H1024   1.085       .  S
C1025      C1026   1.406   1_554  A
C1025      C1030   1.405       .  A
C1026      C1027   1.402       .  A
C1026      H1035   1.083       .  S
C1027      C1028   1.407   1_556  A
C1027      H1036   1.084       .  S
C1028      C1034   1.393       .  A
C1028      C1029   1.416       .  A
C1029      C1031   1.402       .  A
C1029      C1030   1.399       .  A
C1030      H1037   1.085       .  S
C1031      C1032   1.396       .  A
C1031      H1038   1.083       .  S
C1032      C1033   1.402       .  A
C1032      H1039   1.080       .  S
C1033      C1034   1.404       .  A
C1034      H1040   1.085       .  S
C1041      C1042   1.400       .  A
C1041      C1046   1.403       .  A
C1042      C1043   1.401       .  A
C1042      H1051   1.083       .  S
C1043      C1044   1.407       .  A
C1043      H1052   1.083       .  S
C1044      C1050   1.397       .  A
C1044      C1045   1.408       .  A
C1045      C1047   1.399       .  A
C1045      C1046   1.390       .  A
C1046      H1053   1.085       .  S
C1047      C1048   1.394       .  A
C1047      H1054   1.073       .  S
C1048      C1049   1.402       .  A
C1048      H1055   1.083       .  S
C1049      C1050   1.415       .  A
C1050      H1056   1.085       .  S
C1057      C1058   1.410       .  A
C1057      C1062   1.401       .  A
C1058      C1059   1.401       .  A
C1058      H1067   1.083       .  S
C1059      C1060   1.405       .  A
C1059      H1068   1.083       .  S
C1060      C1066   1.389       .  A
C1060      C1061   1.414       .  A
C1061      C1063   1.398       .  A
C1061      C1062   1.397       .  A
C1062      H1069   1.086       .  S
C1063      C1064   1.394       .  A
C1063      H1070   1.083       .  S
C1064      C1065   1.400       .  A
C1064      H1071   1.078       .  S
C1065      C1066   1.401       .  A
C1066      H1072   1.080       .  S
C1073      C1074   1.402   1_455  A
C1073      C1078   1.399       .  A
C1074      C1075   1.396       .  A
C1074      H1083   1.082       .  S
C1075      C1076   1.405       .  A
C1075      H1084   1.083       .  S
C1076      C1082   1.387       .  A
C1076      C1077   1.415   1_655  A
C1077      C1079   1.399       .  A
C1077      C1078   1.395       .  A
C1078      H1085   1.085       .  S
C1079      C1080   1.392       .  A
C1079      H1086   1.084       .  S
C1080      C1081   1.404   1_455  A
C1080      H1087   1.083       .  S
C1081      C1082   1.404       .  A
C1082      H1088   1.084       .  S
