geometry optimzed in LAMMPS
_audit_creation_date              2020-11-30 
_audit_creation_method            'lammps2cif' 
_symmetry_space_group_name_H-M    'P1' 
_symmetry_Int_Tables_number       1 
_symmetry_cell_setting            triclinic 
loop_ 
_symmetry_equiv_pos_as_xyz 
  x,y,z 
_cell_length_a                    33.09026344 
_cell_length_b                    33.071130306986156 
_cell_length_c                    31.675967026080354 
_cell_angle_alpha                 89.54566736914062 
_cell_angle_beta                  90.22439217771006 
_cell_angle_gamma                 120.04702062401927 
loop_ 
_atom_site_label 
_atom_site_type_symbol 
_atom_site_fract_x 
_atom_site_fract_y 
_atom_site_fract_z 
_atom_site_charge 
Fe1        Fe  0.13126234  0.36759318  0.37515153     1.65800
Fe2        Fe  0.23403463  0.36737965  0.37494899     1.73200
Fe3        Fe  0.13127249  0.26418681  0.37485389     1.54400
O4          O  0.08076959  0.25853621  0.41635335    -0.81100
O5          O  0.23732216  0.33025762  0.32418635    -0.79400
O6          O  0.09118779  0.32982373  0.42634793    -0.83600
O7          O  0.08069790  0.32260502  0.33375783    -0.78400
O8          O  0.16822065  0.25996599  0.42579731    -0.80200
O9          O  0.23896397  0.41739101  0.33238829    -0.83000
C10         C  0.07122847  0.28518782  0.31493894     0.97800
C11         C  0.07133670  0.28649945  0.43516903     1.05200
O12         O  0.16551083  0.33304612  0.37498119    -1.11900
O13         O  0.23734799  0.40781071  0.42569727    -0.74400
O14         O  0.17676971  0.41820228  0.41620956    -0.77900
O15         O  0.09108270  0.26174511  0.32371647    -0.78600
C16         C  0.21448467  0.42797993  0.43490042     0.96700
O17         O  0.16809998  0.40878344  0.32416393    -0.76500
O18         O  0.23906845  0.32235898  0.41752037    -0.81700
C19         C  0.21443576  0.28718324  0.31497003     0.99300
C20         C  0.21111617  0.28398402  0.43559217     1.05200
O21         O  0.17672221  0.25917594  0.33368233    -0.77300
C22         C  0.21098630  0.42773924  0.31434969     1.03500
Fe23       Fe  0.36849651  0.13293762  0.12515231     1.65800
Fe24       Fe  0.26572952  0.13317271  0.12496655     1.73200
Fe25       Fe  0.36853106  0.23633453  0.12488710     1.54400
O26         O  0.40858749  0.23898890  0.17623075    -0.81100
O27         O  0.26078556  0.17807177  0.08218564    -0.79400
O28         O  0.41906870  0.17815571  0.16645050    -0.83600
O29         O  0.40858197  0.17041270  0.07383736    -0.78400
O30         O  0.32297185  0.24153746  0.16576965    -0.80200
O31         O  0.26245554  0.09252570  0.07441522    -0.83000
C32         C  0.42851406  0.21371329  0.06489580     0.97800
C33         C  0.42848096  0.21561929  0.18516069     1.05200
O34         O  0.33425827  0.16748497  0.12500653    -1.11900
O35         O  0.26073085  0.08329323  0.16772386    -0.74400
O36         O  0.33161900  0.09202783  0.17624692    -0.77900
O37         O  0.41913329  0.24178069  0.08359269    -0.78600
C38         C  0.28869290  0.07303422  0.18592607     0.96700
O39         O  0.32296616  0.08209332  0.08428015    -0.76500
O40         O  0.26237574  0.17050088  0.17552738    -0.81700
C41         C  0.28878753  0.21635314  0.06400217     0.99300
C42         C  0.28523857  0.21364025  0.18451196     1.05200
O43         O  0.33169930  0.24033772  0.07375233    -0.77300
C44         C  0.28527942  0.07223856  0.06549317     1.03500
C45         C  0.46482934  0.23272952  0.03150680    -0.04700
C46         C  0.45505456  0.21229464  0.49109351    -0.01900
C47         C  0.49025968  0.22888268  0.46000536     0.03100
C48         C  0.03506271  0.26734300  0.46857572    -0.04700
C49         C  0.04486994  0.28769842  0.00900987    -0.01800
C50         C  0.00964042  0.27119822  0.04006098     0.03100
C51         C  0.40781377  0.17657565  0.48041963     0.37800
C52         C  0.09217547  0.32322677  0.01972973     0.37800
C53         C  0.01981313  0.29400985  0.08080934     0.36200
C54         C  0.48007353  0.20622463  0.41917885     0.36200
N55         N  0.02807418  0.31275975  0.11303930    -0.38600
N56         N  0.47183621  0.18764152  0.38686622    -0.38600
N57         N  0.13007499  0.35081009  0.02859024    -0.38100
N58         N  0.36998154  0.14880763  0.47156049    -0.38100
C59         C  0.46479460  0.23289930  0.21854301    -0.04700
C60         C  0.45504044  0.24342187  0.25901556    -0.01900
C61         C  0.49019594  0.26178794  0.29015718     0.03100
C62         C  0.03493811  0.26807140  0.28155654    -0.04700
C63         C  0.04473095  0.25768349  0.24105790    -0.01800
C64         C  0.00954797  0.23919154  0.20995816     0.03100
C65         C  0.40786645  0.23203152  0.26968754     0.37800
C66         C  0.09198826  0.26940340  0.23032041     0.37800
C67         C  0.01972321  0.22677580  0.16911152     0.36200
C68         C  0.48001768  0.27405728  0.33107592     0.36200
N69         N  0.02799614  0.21647099  0.13680297    -0.38600
N70         N  0.47177786  0.28423626  0.36346202    -0.38600
N71         N  0.12984417  0.27966782  0.22141886    -0.38100
N72         N  0.37009452  0.22209029  0.27857433    -0.38100
C73         C  0.26970791  0.03638854  0.21928005    -0.04700
C74         C  0.27360298  0.99594450  0.21521606    -0.01900
C75         C  0.25390085  0.46014264  0.24600705     0.03100
C76         C  0.22989967  0.46437701  0.28097475    -0.04700
C77         C  0.22594450  0.50479547  0.28500364    -0.01800
C78         C  0.24568541  0.04061775  0.25422695     0.03100
C79         C  0.29620719  0.99023362  0.17839395     0.37800
C80         C  0.20320781  0.51044675  0.32175231     0.37800
C81         C  0.24244479  0.08250167  0.25923068     0.36200
C82         C  0.25715528  0.41827028  0.24097623     0.36200
N83         N  0.23987900  0.11588865  0.26334052    -0.39000
N84         N  0.25975476  0.38490830  0.23681559    -0.38600
N85         N  0.18522317  0.51498928  0.35114536    -0.38100
N86         N  0.31406346  0.98563710  0.14893136    -0.38100
C87         C  0.23255581  0.46476929  0.46848372    -0.04700
C88         C  0.20147662  0.47320715  0.49267346    -0.01900
C89         C  0.21857801  0.00756174  0.02446569     0.03100
C90         C  0.26720079  0.03523579  0.03211478    -0.04700
C91         C  0.29826994  0.02670421  0.00802296    -0.01800
C92         C  0.28117469  0.49233687  0.47624279     0.03100
C93         C  0.15139493  0.44650595  0.48557421     0.37800
C94         C  0.34833415  0.05329320  0.01524514     0.37800
C95         C  0.31448275  0.48720606  0.45035344     0.36200
C96         C  0.18529145  0.01252777  0.05054094     0.36200
N97         N  0.34120471  0.48336712  0.42980912    -0.38600
N98         N  0.15859356  0.01621283  0.07126115    -0.38600
N99         N  0.38824905  0.07395067  0.02093872    -0.38100
N100        N  0.11146164  0.42575310  0.47999995    -0.38100
C101        C  0.23006303  0.26628026  0.46895862    -0.04700
C102        C  0.22564075  0.22167614  0.46514005    -0.01900
C103        C  0.24541181  0.20560021  0.49586453     0.03100
C104        C  0.26986596  0.23404232  0.03061094    -0.04700
C105        C  0.27423609  0.27861698  0.03446078    -0.01800
C106        C  0.25451870  0.29471839  0.00371212     0.03100
C107        C  0.20230700  0.19298685  0.42867751     0.37800
C108        C  0.29738548  0.30721196  0.07102368     0.37800
C109        C  0.25814956  0.34002951  0.00863333     0.36200
C110        C  0.24180170  0.16029518  0.49096193     0.36200
N111        N  0.26103436  0.37612889  0.01273548    -0.38600
N112        N  0.23895317  0.12420661  0.48690039    -0.38600
N113        N  0.31570586  0.32988815  0.10027380    -0.38100
N114        N  0.18380474  0.17021746  0.39952166    -0.38100
C115        C  0.23250164  0.26848579  0.28137735    -0.04700
C116        C  0.20141784  0.22890844  0.25719163    -0.01900
C117        C  0.21852042  0.21156867  0.22549616     0.03100
C118        C  0.26714985  0.23253933  0.21789224    -0.04700
C119        C  0.29822353  0.27219495  0.24198854    -0.01800
C120        C  0.28112561  0.28956107  0.27366072     0.03100
C121        C  0.15132436  0.20557580  0.26417698     0.37800
C122        C  0.34830564  0.29560575  0.23491034     0.37800
C123        C  0.31443750  0.32815561  0.29946128     0.36200
C124        C  0.18522951  0.17316783  0.19950342     0.36200
N125        N  0.34116848  0.35885282  0.31992093    -0.38600
N126        N  0.15852158  0.14265435  0.17886159    -0.38600
N127        N  0.38823988  0.31480388  0.22934705    -0.38100
N128        N  0.11137620  0.18643827  0.26964672    -0.38100
Fe129      Fe  0.13126242  0.36759327  0.87515153     1.65800
Fe130      Fe  0.23403466  0.36737965  0.87494898     1.73200
Fe131      Fe  0.13127250  0.26418685  0.87485383     1.54400
O132        O  0.08076961  0.25853651  0.91635340    -0.81100
O133        O  0.23732204  0.33025752  0.82418633    -0.79400
O134        O  0.09118797  0.32982415  0.92634798    -0.83600
O135        O  0.08069790  0.32260493  0.83375776    -0.78400
O136        O  0.16822061  0.25996605  0.92579733    -0.80200
O137        O  0.23896394  0.41739110  0.83238824    -0.83000
C138        C  0.07122859  0.28518805  0.81493893     0.97800
C139        C  0.07133663  0.28649943  0.93516910     1.05200
O140        O  0.16551097  0.33304627  0.87498121    -1.11900
O141        O  0.23734790  0.40781081  0.92569735    -0.74400
O142        O  0.17676962  0.41820234  0.91620951    -0.77900
O143        O  0.09108269  0.26174511  0.82371641    -0.78600
C144        C  0.21448478  0.42798000  0.93490038     0.96700
O145        O  0.16810007  0.40878354  0.82416391    -0.76500
O146        O  0.23906849  0.32235900  0.91752040    -0.81700
C147        C  0.21443586  0.28718333  0.81496993     0.99300
C148        C  0.21111608  0.28398414  0.93559208     1.05200
O149        O  0.17672218  0.25917592  0.83368225    -0.77300
C150        C  0.21098631  0.42773922  0.81434974     1.03500
Fe151      Fe  0.36849643  0.13293757  0.62515239     1.65800
Fe152      Fe  0.26572950  0.13317277  0.62496660     1.73200
Fe153      Fe  0.36853093  0.23633454  0.62488711     1.54400
O154        O  0.40858763  0.23898866  0.67623080    -0.81100
O155        O  0.26078562  0.17807177  0.58218574    -0.79400
O156        O  0.41906877  0.17815560  0.66645039    -0.83600
O157        O  0.40858209  0.17041281  0.57383726    -0.78400
O158        O  0.32297168  0.24153728  0.66576979    -0.80200
O159        O  0.26245548  0.09252563  0.57441523    -0.83000
C160        C  0.42851401  0.21371334  0.56489579     0.97800
C161        C  0.42848085  0.21561928  0.68516074     1.05200
O162        O  0.33425822  0.16748494  0.62500646    -1.11900
O163        O  0.26073086  0.08329312  0.66772399    -0.74400
O164        O  0.33161902  0.09202773  0.67624706    -0.77900
O165        O  0.41913337  0.24178086  0.58359280    -0.78600
C166        C  0.28869295  0.07303420  0.68592604     0.96700
O167        O  0.32296609  0.08209326  0.58428014    -0.76500
O168        O  0.26237564  0.17050077  0.67552740    -0.81700
C169        C  0.28878751  0.21635314  0.56400224     0.99300
C170        C  0.28523864  0.21364029  0.68451208     1.05200
O171        O  0.33169949  0.24033779  0.57375250    -0.77300
C172        C  0.28527924  0.07223859  0.56549309     1.03500
C173        C  0.46482934  0.23272963  0.53150676    -0.04700
C174        C  0.45505471  0.21229468  0.99109336    -0.01900
C175        C  0.49025954  0.22888271  0.96000540     0.03100
C176        C  0.03506277  0.26734318  0.96857574    -0.04700
C177        C  0.04486997  0.28769840  0.50901001    -0.01800
C178        C  0.00964033  0.27119817  0.54006094     0.03100
C179        C  0.40781384  0.17657565  0.98041971     0.37800
C180        C  0.09217545  0.32322675  0.51972968     0.37800
C181        C  0.01981312  0.29400971  0.58080932     0.36200
C182        C  0.48007376  0.20622467  0.91917883     0.36200
N183        N  0.02807415  0.31275966  0.61303934    -0.38600
N184        N  0.47183641  0.18764163  0.88686624    -0.38600
N185        N  0.13007486  0.35081000  0.52859017    -0.38100
N186        N  0.36998158  0.14880757  0.97156040    -0.38100
C187        C  0.46479480  0.23289925  0.71854302    -0.04700
C188        C  0.45504032  0.24342183  0.75901559    -0.01900
C189        C  0.49019614  0.26178802  0.79015715     0.03100
C190        C  0.03493803  0.26807142  0.78155655    -0.04700
C191        C  0.04473106  0.25768348  0.74105788    -0.01800
C192        C  0.00954792  0.23919139  0.70995834     0.03100
C193        C  0.40786652  0.23203149  0.76968749     0.37800
C194        C  0.09198822  0.26940331  0.73032044     0.37800
C195        C  0.01972323  0.22677568  0.66911149     0.36200
C196        C  0.48001752  0.27405719  0.83107610     0.36200
N197        N  0.02799606  0.21647081  0.63680318    -0.38600
N198        N  0.47177796  0.28423629  0.86346187    -0.38600
N199        N  0.12984441  0.27966790  0.72141890    -0.38100
N200        N  0.37009457  0.22209033  0.77857433    -0.38100
C201        C  0.26970797  0.03638869  0.71928016    -0.04700
C202        C  0.27360304  0.99594460  0.71521604    -0.01900
C203        C  0.25390085  0.46014288  0.74600719     0.03100
C204        C  0.22989987  0.46437716  0.78097479    -0.04700
C205        C  0.22594451  0.50479578  0.78500376    -0.01800
C206        C  0.24568538  0.04061768  0.75422699     0.03100
C207        C  0.29620730  0.99023374  0.67839398     0.37800
C208        C  0.20320805  0.51044673  0.82175194     0.37800
C209        C  0.24244494  0.08250175  0.75923081     0.36200
C210        C  0.25715540  0.41827003  0.74097622     0.36200
N211        N  0.23987909  0.11588865  0.76334056    -0.39000
N212        N  0.25975482  0.38490866  0.73681566    -0.38600
N213        N  0.18522300  0.51498927  0.85114562    -0.38100
N214        N  0.31406364  0.98563721  0.64893146    -0.38100
C215        C  0.23255579  0.46476937  0.96848365    -0.04700
C216        C  0.20147642  0.47320696  0.99267346    -0.01900
C217        C  0.21857788  0.00756163  0.52446563     0.03100
C218        C  0.26720078  0.03523586  0.53211480    -0.04700
C219        C  0.29826985  0.02670426  0.50802311    -0.01800
C220        C  0.28117448  0.49233689  0.97624291     0.03100
C221        C  0.15139538  0.44650615  0.98557440     0.37800
C222        C  0.34833427  0.05329313  0.51524519     0.37800
C223        C  0.31448296  0.48720611  0.95035329     0.36200
C224        C  0.18529164  0.01252774  0.55054083     0.36200
N225        N  0.34120448  0.48336728  0.92980907    -0.38600
N226        N  0.15859351  0.01621297  0.57126105    -0.38600
N227        N  0.38824877  0.07395061  0.52093876    -0.38100
N228        N  0.11146139  0.42575302  0.97999999    -0.38100
C229        C  0.23006308  0.26628028  0.96895856    -0.04700
C230        C  0.22564073  0.22167629  0.96514009    -0.01900
C231        C  0.24541172  0.20560008  0.99586453     0.03100
C232        C  0.26986598  0.23404229  0.53061109    -0.04700
C233        C  0.27423609  0.27861701  0.53446085    -0.01800
C234        C  0.25451864  0.29471833  0.50371211     0.03100
C235        C  0.20230683  0.19298673  0.92867741     0.37800
C236        C  0.29738539  0.30721182  0.57102363     0.37800
C237        C  0.25814967  0.34002968  0.50863336     0.36200
C238        C  0.24180163  0.16029528  0.99096188     0.36200
N239        N  0.26103427  0.37612878  0.51273542    -0.38600
N240        N  0.23895309  0.12420649  0.98690041    -0.38600
N241        N  0.31570584  0.32988824  0.60027398    -0.38100
N242        N  0.18380471  0.17021752  0.89952175    -0.38100
C243        C  0.23250151  0.26848566  0.78137728    -0.04700
C244        C  0.20141784  0.22890845  0.75719160    -0.01900
C245        C  0.21852034  0.21156862  0.72549628     0.03100
C246        C  0.26714959  0.23253912  0.71789226    -0.04700
C247        C  0.29822361  0.27219496  0.74198854    -0.01800
C248        C  0.28112551  0.28956107  0.77366070     0.03100
C249        C  0.15132446  0.20557590  0.76417694     0.37800
C250        C  0.34830559  0.29560568  0.73491040     0.37800
C251        C  0.31443757  0.32815562  0.79946133     0.36200
C252        C  0.18522944  0.17316772  0.69950347     0.36200
N253        N  0.34116827  0.35885258  0.81992092    -0.38600
N254        N  0.15852161  0.14265415  0.67886173    -0.38600
N255        N  0.38823976  0.31480375  0.72934717    -0.38100
N256        N  0.11137601  0.18643814  0.76964668    -0.38100
Fe257      Fe  0.13126235  0.86759318  0.37515156     1.65800
Fe258      Fe  0.23403467  0.86737965  0.37494899     1.73200
Fe259      Fe  0.13127248  0.76418684  0.37485381     1.54400
O260        O  0.08076951  0.75853651  0.41635354    -0.81100
O261        O  0.23732212  0.83025754  0.32418639    -0.79400
O262        O  0.09118778  0.82982409  0.42634789    -0.83600
O263        O  0.08069788  0.82260508  0.33375779    -0.78400
O264        O  0.16822074  0.75996609  0.42579735    -0.80200
O265        O  0.23896401  0.91739103  0.33238831    -0.83000
C266        C  0.07122835  0.78518790  0.31493895     0.97800
C267        C  0.07133650  0.78649935  0.43516894     1.05200
O268        O  0.16551087  0.83304618  0.37498121    -1.11900
O269        O  0.23734789  0.90781070  0.42569730    -0.74400
O270        O  0.17676964  0.91820230  0.41620955    -0.77900
O271        O  0.09108262  0.76174505  0.32371648    -0.78600
C272        C  0.21448472  0.92797997  0.43490042     0.96700
O273        O  0.16810004  0.90878347  0.32416391    -0.76500
O274        O  0.23906847  0.82235905  0.41752039    -0.81700
C275        C  0.21443577  0.78718327  0.31496998     0.99300
C276        C  0.21111611  0.78398400  0.43559209     1.05200
O277        O  0.17672213  0.75917592  0.33368239    -0.77300
C278        C  0.21098628  0.92773924  0.31434968     1.03500
Fe279      Fe  0.36849656  0.63293762  0.12515234     1.65800
Fe280      Fe  0.26572951  0.63317268  0.12496660     1.73200
Fe281      Fe  0.36853106  0.73633457  0.12488713     1.54400
O282        O  0.40858746  0.73898880  0.17623065    -0.81100
O283        O  0.26078573  0.67807190  0.08218555    -0.79400
O284        O  0.41906865  0.67815565  0.16645038    -0.83600
O285        O  0.40858198  0.67041266  0.07383735    -0.78400
O286        O  0.32297192  0.74153756  0.16576959    -0.80200
O287        O  0.26245543  0.59252567  0.07441524    -0.83000
C288        C  0.42851406  0.71371336  0.06489582     0.97800
C289        C  0.42848088  0.71561923  0.18516075     1.05200
O290        O  0.33425833  0.66748501  0.12500648    -1.11900
O291        O  0.26073088  0.58329325  0.16772387    -0.74400
O292        O  0.33161904  0.59202784  0.17624690    -0.77900
O293        O  0.41913324  0.74178061  0.08359269    -0.78600
C294        C  0.28869287  0.57303422  0.18592605     0.96700
O295        O  0.32296608  0.58209331  0.08428009    -0.76500
O296        O  0.26237579  0.67050102  0.17552731    -0.81700
C297        C  0.28878750  0.71635309  0.06400216     0.99300
C298        C  0.28523837  0.71364012  0.18451202     1.05200
O299        O  0.33169946  0.74033788  0.07375235    -0.77300
C300        C  0.28527954  0.57223857  0.06549317     1.03500
C301        C  0.46482929  0.73272953  0.03150678    -0.04700
C302        C  0.45505457  0.71229468  0.49109348    -0.01900
C303        C  0.49025953  0.72888266  0.46000540     0.03100
C304        C  0.03506266  0.76734312  0.46857583    -0.04700
C305        C  0.04486997  0.78769847  0.00900994    -0.01800
C306        C  0.00964052  0.77119832  0.04006094     0.03100
C307        C  0.40781377  0.67657578  0.48041965     0.37800
C308        C  0.09217541  0.82322673  0.01972971     0.37800
C309        C  0.01981315  0.79400982  0.08080938     0.36200
C310        C  0.48007354  0.70622463  0.41917878     0.36200
N311        N  0.02807421  0.81275976  0.11303931    -0.38600
N312        N  0.47183621  0.68764153  0.38686629    -0.38600
N313        N  0.13007507  0.85081015  0.02859027    -0.38100
N314        N  0.36998138  0.64880767  0.47156049    -0.38100
C315        C  0.46479460  0.73289925  0.21854299    -0.04700
C316        C  0.45504043  0.74342187  0.25901557    -0.01900
C317        C  0.49019593  0.76178797  0.29015717     0.03100
C318        C  0.03493811  0.76807139  0.28155655    -0.04700
C319        C  0.04473092  0.75768350  0.24105791    -0.01800
C320        C  0.00954793  0.73919148  0.20995814     0.03100
C321        C  0.40786624  0.73203148  0.26968755     0.37800
C322        C  0.09198838  0.76940341  0.23032045     0.37800
C323        C  0.01972318  0.72677573  0.16911164     0.36200
C324        C  0.48001762  0.77405722  0.33107585     0.36200
N325        N  0.02799617  0.71647089  0.13680292    -0.38600
N326        N  0.47177776  0.78423629  0.36346203    -0.38600
N327        N  0.12984408  0.77966782  0.22141890    -0.38100
N328        N  0.37009453  0.72209029  0.27857434    -0.38100
C329        C  0.26970803  0.53638857  0.21928002    -0.04700
C330        C  0.27360297  0.49594455  0.21521617    -0.01900
C331        C  0.25390080  0.96014268  0.24600708     0.03100
C332        C  0.22989982  0.96437705  0.28097474    -0.04700
C333        C  0.22594450  0.00479552  0.28500375    -0.01800
C334        C  0.24568534  0.54061779  0.25422698     0.03100
C335        C  0.29620730  0.49023357  0.17839385     0.37800
C336        C  0.20320792  0.01044670  0.32175221     0.37800
C337        C  0.24244489  0.58250161  0.25923066     0.36200
C338        C  0.25715538  0.91827022  0.24097620     0.36200
N339        N  0.23987906  0.61588878  0.26334053    -0.39000
N340        N  0.25975482  0.88490843  0.23681559    -0.38600
N341        N  0.18522325  0.01498931  0.35114553    -0.38100
N342        N  0.31406354  0.48563713  0.14893154    -0.38100
C343        C  0.23255559  0.96476927  0.46848376    -0.04700
C344        C  0.20147671  0.97320718  0.49267350    -0.01900
C345        C  0.21857803  0.50756167  0.02446570     0.03100
C346        C  0.26720063  0.53523572  0.03211484    -0.04700
C347        C  0.29827015  0.52670427  0.00802294    -0.01800
C348        C  0.28117478  0.99233689  0.47624279     0.03100
C349        C  0.15139492  0.94650597  0.48557428     0.37800
C350        C  0.34833396  0.55329310  0.01524510     0.37800
C351        C  0.31448273  0.98720605  0.45035341     0.36200
C352        C  0.18529135  0.51252777  0.05054108     0.36200
N353        N  0.34120467  0.98336717  0.42980908    -0.38600
N354        N  0.15859370  0.51621281  0.07126109    -0.38600
N355        N  0.38824918  0.57395080  0.02093871    -0.38100
N356        N  0.11146161  0.92575308  0.47999995    -0.38100
C357        C  0.23006298  0.76628024  0.46895867    -0.04700
C358        C  0.22564069  0.72167617  0.46514015    -0.01900
C359        C  0.24541167  0.70560007  0.49586462     0.03100
C360        C  0.26986600  0.73404238  0.03061090    -0.04700
C361        C  0.27423607  0.77861692  0.03446087    -0.01800
C362        C  0.25451857  0.79471832  0.00371208     0.03100
C363        C  0.20230681  0.69298667  0.42867740     0.37800
C364        C  0.29738538  0.80721186  0.07102355     0.37800
C365        C  0.25814954  0.84002969  0.00863330     0.36200
C366        C  0.24180170  0.66029529  0.49096194     0.36200
N367        N  0.26103417  0.87612869  0.01273551    -0.38600
N368        N  0.23895297  0.62420643  0.48690040    -0.38600
N369        N  0.31570573  0.82988817  0.10027392    -0.38100
N370        N  0.18380455  0.67021741  0.39952188    -0.38100
C371        C  0.23250153  0.76848576  0.28137731    -0.04700
C372        C  0.20141794  0.72890847  0.25719160    -0.01900
C373        C  0.21852031  0.71156860  0.22549618     0.03100
C374        C  0.26714994  0.73253947  0.21789223    -0.04700
C375        C  0.29822348  0.77219493  0.24198855    -0.01800
C376        C  0.28112565  0.78956113  0.27366074     0.03100
C377        C  0.15132429  0.70557571  0.26417696     0.37800
C378        C  0.34830567  0.79560583  0.23491033     0.37800
C379        C  0.31443739  0.82815555  0.29946129     0.36200
C380        C  0.18522957  0.67316786  0.19950341     0.36200
N381        N  0.34116849  0.85885281  0.31992091    -0.38600
N382        N  0.15852157  0.64265434  0.17886162    -0.38600
N383        N  0.38823979  0.81480385  0.22934706    -0.38100
N384        N  0.11137619  0.68643826  0.26964674    -0.38100
Fe385      Fe  0.13126233  0.86759316  0.87515151     1.65800
Fe386      Fe  0.23403466  0.86737971  0.87494898     1.73200
Fe387      Fe  0.13127252  0.76418686  0.87485382     1.54400
O388        O  0.08076963  0.75853654  0.91635336    -0.81100
O389        O  0.23732204  0.83025752  0.82418632    -0.79400
O390        O  0.09118800  0.82982416  0.92634799    -0.83600
O391        O  0.08069787  0.82260493  0.83375780    -0.78400
O392        O  0.16822066  0.75996608  0.92579734    -0.80200
O393        O  0.23896404  0.91739113  0.83238832    -0.83000
C394        C  0.07122856  0.78518801  0.81493891     0.97800
C395        C  0.07133663  0.78649944  0.93516912     1.05200
O396        O  0.16551094  0.83304623  0.87498122    -1.11900
O397        O  0.23734803  0.90781079  0.92569733    -0.74400
O398        O  0.17676980  0.91820237  0.91620953    -0.77900
O399        O  0.09108267  0.76174522  0.82371640    -0.78600
C400        C  0.21448468  0.92798003  0.93490036     0.96700
O401        O  0.16810014  0.90878361  0.82416389    -0.76500
O402        O  0.23906851  0.82235903  0.91752034    -0.81700
C403        C  0.21443594  0.78718338  0.81496991     0.99300
C404        C  0.21111607  0.78398410  0.93559202     1.05200
O405        O  0.17672218  0.75917591  0.83368223    -0.77300
C406        C  0.21098625  0.92773920  0.81434977     1.03500
Fe407      Fe  0.36849646  0.63293758  0.62515239     1.65800
Fe408      Fe  0.26572947  0.63317275  0.62496662     1.73200
Fe409      Fe  0.36853092  0.73633452  0.62488713     1.54400
O410        O  0.40858759  0.73898876  0.67623081    -0.81100
O411        O  0.26078561  0.67807177  0.58218571    -0.79400
O412        O  0.41906870  0.67815568  0.66645044    -0.83600
O413        O  0.40858209  0.67041288  0.57383729    -0.78400
O414        O  0.32297171  0.74153732  0.66576979    -0.80200
O415        O  0.26245549  0.59252562  0.57441523    -0.83000
C416        C  0.42851402  0.71371330  0.56489574     0.97800
C417        C  0.42848087  0.71561923  0.68516075     1.05200
O418        O  0.33425819  0.66748493  0.62500647    -1.11900
O419        O  0.26073073  0.58329313  0.66772398    -0.74400
O420        O  0.33161884  0.59202772  0.67624704    -0.77900
O421        O  0.41913337  0.74178094  0.58359281    -0.78600
C422        C  0.28869299  0.57303419  0.68592609     0.96700
O423        O  0.32296617  0.58209330  0.58428010    -0.76500
O424        O  0.26237567  0.67050079  0.67552740    -0.81700
C425        C  0.28878746  0.71635311  0.56400225     0.99300
C426        C  0.28523862  0.71364027  0.68451209     1.05200
O427        O  0.33169937  0.74033773  0.57375240    -0.77300
C428        C  0.28527924  0.57223854  0.56549311     1.03500
C429        C  0.46482937  0.73272970  0.53150679    -0.04700
C430        C  0.45505473  0.71229470  0.99109331    -0.01900
C431        C  0.49025957  0.72888268  0.96000540     0.03100
C432        C  0.03506280  0.76734320  0.96857569    -0.04700
C433        C  0.04486986  0.78769841  0.50901001    -0.01800
C434        C  0.00964034  0.77119817  0.54006100     0.03100
C435        C  0.40781393  0.67657569  0.98041967     0.37800
C436        C  0.09217543  0.82322676  0.51972970     0.37800
C437        C  0.01981306  0.79400973  0.58080937     0.36200
C438        C  0.48007379  0.70622468  0.91917882     0.36200
N439        N  0.02807417  0.81275967  0.61303932    -0.38600
N440        N  0.47183646  0.68764162  0.88686623    -0.38600
N441        N  0.13007490  0.85080998  0.52859017    -0.38100
N442        N  0.36998159  0.64880756  0.97156038    -0.38100
C443        C  0.46479476  0.73289932  0.71854302    -0.04700
C444        C  0.45504040  0.74342186  0.75901560    -0.01900
C445        C  0.49019602  0.76178802  0.79015715     0.03100
C446        C  0.03493799  0.76807141  0.78155654    -0.04700
C447        C  0.04473108  0.75768351  0.74105791    -0.01800
C448        C  0.00954780  0.73919136  0.70995823     0.03100
C449        C  0.40786652  0.73203150  0.76968747     0.37800
C450        C  0.09198821  0.76940331  0.73032039     0.37800
C451        C  0.01972321  0.72677569  0.66911152     0.36200
C452        C  0.48001754  0.77405719  0.83107611     0.36200
N453        N  0.02799603  0.71647080  0.63680316    -0.38600
N454        N  0.47177799  0.78423631  0.86346190    -0.38600
N455        N  0.12984430  0.77966790  0.72141889    -0.38100
N456        N  0.37009450  0.72209036  0.77857435    -0.38100
C457        C  0.26970785  0.53638869  0.71928020    -0.04700
C458        C  0.27360314  0.49594457  0.71521599    -0.01900
C459        C  0.25390089  0.96014281  0.74600711     0.03100
C460        C  0.22989980  0.96437710  0.78097476    -0.04700
C461        C  0.22594463  0.00479573  0.78500366    -0.01800
C462        C  0.24568544  0.54061761  0.75422694     0.03100
C463        C  0.29620728  0.49023377  0.67839415     0.37800
C464        C  0.20320804  0.01044684  0.82175211     0.37800
C465        C  0.24244490  0.58250187  0.75923086     0.36200
C466        C  0.25715527  0.91827011  0.74097616     0.36200
N467        N  0.23987912  0.61588857  0.76334058    -0.39000
N468        N  0.25975471  0.88490844  0.73681561    -0.38600
N469        N  0.18522324  0.01498942  0.85114550    -0.38100
N470        N  0.31406376  0.48563721  0.64893131    -0.38100
C471        C  0.23255587  0.96476936  0.96848366    -0.04700
C472        C  0.20147650  0.97320702  0.99267338    -0.01900
C473        C  0.21857780  0.50756158  0.52446560     0.03100
C474        C  0.26720091  0.53523588  0.53211473    -0.04700
C475        C  0.29826985  0.52670428  0.50802310    -0.01800
C476        C  0.28117471  0.99233700  0.97624287     0.03100
C477        C  0.15139508  0.94650605  0.98557431     0.37800
C478        C  0.34833420  0.55329313  0.51524520     0.37800
C479        C  0.31448282  0.98720613  0.95035338     0.36200
C480        C  0.18529148  0.51252759  0.55054091     0.36200
N481        N  0.34120465  0.98336727  0.92980900    -0.38600
N482        N  0.15859346  0.51621276  0.57126110    -0.38600
N483        N  0.38824884  0.57395065  0.52093875    -0.38100
N484        N  0.11146169  0.92575319  0.97999997    -0.38100
C485        C  0.23006310  0.76628032  0.96895865    -0.04700
C486        C  0.22564074  0.72167617  0.96514001    -0.01900
C487        C  0.24541178  0.70560020  0.99586450     0.03100
C488        C  0.26986602  0.73404239  0.53061105    -0.04700
C489        C  0.27423602  0.77861687  0.53446081    -0.01800
C490        C  0.25451874  0.79471844  0.50371211     0.03100
C491        C  0.20230693  0.69298679  0.92867744     0.37800
C492        C  0.29738551  0.80721190  0.57102372     0.37800
C493        C  0.25814970  0.84002957  0.50863337     0.36200
C494        C  0.24180166  0.66029520  0.99096184     0.36200
N495        N  0.26103434  0.87612889  0.51273540    -0.38600
N496        N  0.23895316  0.62420670  0.98690042    -0.38600
N497        N  0.31570582  0.82988816  0.60027383    -0.38100
N498        N  0.18380472  0.67021747  0.89952165    -0.38100
C499        C  0.23250152  0.76848565  0.78137725    -0.04700
C500        C  0.20141787  0.72890852  0.75719162    -0.01900
C501        C  0.21852035  0.71156861  0.72549622     0.03100
C502        C  0.26714965  0.73253916  0.71789229    -0.04700
C503        C  0.29822351  0.77219491  0.74198853    -0.01800
C504        C  0.28112562  0.78956114  0.77366072     0.03100
C505        C  0.15132434  0.70557588  0.76417698     0.37800
C506        C  0.34830569  0.79560574  0.73491041     0.37800
C507        C  0.31443753  0.82815559  0.79946132     0.36200
C508        C  0.18522945  0.67316784  0.69950350     0.36200
N509        N  0.34116835  0.85885263  0.81992095    -0.38600
N510        N  0.15852152  0.64265420  0.67886168    -0.38600
N511        N  0.38823973  0.81480371  0.72934718    -0.38100
N512        N  0.11137614  0.68643821  0.76964668    -0.38100
Fe513      Fe  0.63126237  0.36759322  0.37515156     1.65800
Fe514      Fe  0.73403466  0.36737964  0.37494897     1.73200
Fe515      Fe  0.63127249  0.26418680  0.37485388     1.54400
O516        O  0.58076957  0.25853621  0.41635336    -0.81100
O517        O  0.73732219  0.33025760  0.32418637    -0.79400
O518        O  0.59118781  0.32982375  0.42634793    -0.83600
O519        O  0.58069793  0.32260507  0.33375781    -0.78400
O520        O  0.66822061  0.25996597  0.42579730    -0.80200
O521        O  0.73896413  0.41739101  0.33238834    -0.83000
C522        C  0.57122848  0.28518784  0.31493893     0.97800
C523        C  0.57133668  0.28649944  0.43516902     1.05200
O524        O  0.66551091  0.33304613  0.37498118    -1.11900
O525        O  0.73734788  0.40781078  0.42569728    -0.74400
O526        O  0.67676955  0.41820228  0.41620949    -0.77900
O527        O  0.59108268  0.26174512  0.32371646    -0.78600
C528        C  0.71448487  0.42797993  0.43490043     0.96700
O529        O  0.66810024  0.40878348  0.32416395    -0.76500
O530        O  0.73906843  0.32235898  0.41752041    -0.81700
C531        C  0.71443574  0.28718322  0.31497004     0.99300
C532        C  0.71111614  0.28398402  0.43559211     1.05200
O533        O  0.67672220  0.25917593  0.33368236    -0.77300
C534        C  0.71098634  0.42773927  0.31434968     1.03500
Fe535      Fe  0.86849649  0.13293762  0.12515233     1.65800
Fe536      Fe  0.76572953  0.13317271  0.12496656     1.73200
Fe537      Fe  0.86853102  0.23633454  0.12488707     1.54400
O538        O  0.90858744  0.23898887  0.17623076    -0.81100
O539        O  0.76078556  0.17807178  0.08218563    -0.79400
O540        O  0.91906871  0.17815575  0.16645048    -0.83600
O541        O  0.90858195  0.17041265  0.07383731    -0.78400
O542        O  0.82297182  0.24153745  0.16576963    -0.80200
O543        O  0.76245551  0.09252566  0.07441520    -0.83000
C544        C  0.92851411  0.21371336  0.06489580     0.97800
C545        C  0.92848095  0.21561932  0.18516072     1.05200
O546        O  0.83425829  0.16748498  0.12500654    -1.11900
O547        O  0.76073085  0.08329326  0.16772386    -0.74400
O548        O  0.83161899  0.09202785  0.17624694    -0.77900
O549        O  0.91913332  0.24178067  0.08359271    -0.78600
C550        C  0.78869289  0.07303423  0.18592603     0.96700
O551        O  0.82296614  0.08209332  0.08428019    -0.76500
O552        O  0.76237572  0.17050089  0.17552737    -0.81700
C553        C  0.78878754  0.21635313  0.06400218     0.99300
C554        C  0.78523856  0.21364027  0.18451194     1.05200
O555        O  0.83169939  0.24033780  0.07375233    -0.77300
C556        C  0.78527938  0.07223858  0.06549315     1.03500
C557        C  0.96482933  0.23272951  0.03150680    -0.04700
C558        C  0.95505463  0.21229465  0.49109347    -0.01900
C559        C  0.99025961  0.22888261  0.46000540     0.03100
C560        C  0.53506270  0.26734299  0.46857574    -0.04700
C561        C  0.54486994  0.28769848  0.00900988    -0.01800
C562        C  0.50964041  0.27119823  0.04006102     0.03100
C563        C  0.90781383  0.17657571  0.48041963     0.37800
C564        C  0.59217543  0.32322678  0.01972975     0.37800
C565        C  0.51981311  0.29400986  0.08080935     0.36200
C566        C  0.98007363  0.20622458  0.41917885     0.36200
N567        N  0.52807413  0.31275974  0.11303931    -0.38600
N568        N  0.97183637  0.18764147  0.38686625    -0.38600
N569        N  0.63007493  0.35081010  0.02859025    -0.38100
N570        N  0.86998150  0.14880760  0.47156046    -0.38100
C571        C  0.96479471  0.23289932  0.21854299    -0.04700
C572        C  0.95504038  0.24342189  0.25901553    -0.01900
C573        C  0.99019601  0.26178797  0.29015717     0.03100
C574        C  0.53493809  0.26807140  0.28155658    -0.04700
C575        C  0.54473100  0.25768349  0.24105787    -0.01800
C576        C  0.50954787  0.23919152  0.20995818     0.03100
C577        C  0.90786641  0.23203160  0.26968756     0.37800
C578        C  0.59198833  0.26940338  0.23032044     0.37800
C579        C  0.51972322  0.22677569  0.16911156     0.36200
C580        C  0.98001766  0.27405725  0.33107592     0.36200
N581        N  0.52799611  0.21647093  0.13680299    -0.38600
N582        N  0.97177786  0.28423624  0.36346202    -0.38600
N583        N  0.62984422  0.27966783  0.22141886    -0.38100
N584        N  0.87009467  0.22209049  0.27857435    -0.38100
C585        C  0.76970791  0.03638857  0.21928001    -0.04700
C586        C  0.77360301  0.99594451  0.21521610    -0.01900
C587        C  0.75390084  0.46014270  0.24600706     0.03100
C588        C  0.72989986  0.46437705  0.28097475    -0.04700
C589        C  0.72594456  0.50479551  0.28500372    -0.01800
C590        C  0.74568535  0.04061774  0.25422693     0.03100
C591        C  0.79620725  0.99023362  0.17839392     0.37800
C592        C  0.70320796  0.51044673  0.32175226     0.37800
C593        C  0.74244487  0.08250170  0.25923070     0.36200
C594        C  0.75715528  0.41827019  0.24097618     0.36200
N595        N  0.73987902  0.11588866  0.26334053    -0.39000
N596        N  0.75975472  0.38490833  0.23681555    -0.38600
N597        N  0.68522327  0.51498931  0.35114550    -0.38100
N598        N  0.81406359  0.98563716  0.14893148    -0.38100
C599        C  0.73255563  0.46476927  0.46848371    -0.04700
C600        C  0.70147667  0.47320716  0.49267347    -0.01900
C601        C  0.71857792  0.00756175  0.02446577     0.03100
C602        C  0.76720075  0.03523575  0.03211483    -0.04700
C603        C  0.79826982  0.02670415  0.00802296    -0.01800
C604        C  0.78117474  0.49233689  0.47624281     0.03100
C605        C  0.65139495  0.44650599  0.48557424     0.37800
C606        C  0.84833428  0.05329326  0.01524511     0.37800
C607        C  0.81448279  0.48720607  0.45035339     0.36200
C608        C  0.68529160  0.01252781  0.05054093     0.36200
N609        N  0.84120467  0.48336714  0.42980913    -0.38600
N610        N  0.65859348  0.01621284  0.07126118    -0.38600
N611        N  0.88824894  0.07395063  0.02093871    -0.38100
N612        N  0.61146159  0.42575308  0.47999992    -0.38100
C613        C  0.73006304  0.26628028  0.46895863    -0.04700
C614        C  0.72564068  0.22167606  0.46514010    -0.01900
C615        C  0.74541172  0.20560015  0.49586455     0.03100
C616        C  0.76986594  0.23404232  0.03061092    -0.04700
C617        C  0.77423609  0.27861699  0.03446078    -0.01800
C618        C  0.75451875  0.29471840  0.00371208     0.03100
C619        C  0.70230690  0.19298674  0.42867748     0.37800
C620        C  0.79738547  0.30721198  0.07102368     0.37800
C621        C  0.75814952  0.34002952  0.00863335     0.36200
C622        C  0.74180166  0.16029523  0.49096194     0.36200
N623        N  0.76103431  0.37612885  0.01273548    -0.38600
N624        N  0.73895309  0.12420649  0.48690038    -0.38600
N625        N  0.81570578  0.32988812  0.10027381    -0.38100
N626        N  0.68380469  0.17021747  0.39952170    -0.38100
C627        C  0.73250163  0.26848579  0.28137734    -0.04700
C628        C  0.70141783  0.22890842  0.25719160    -0.01900
C629        C  0.71852043  0.21156867  0.22549615     0.03100
C630        C  0.76714985  0.23253934  0.21789222    -0.04700
C631        C  0.79822354  0.27219498  0.24198853    -0.01800
C632        C  0.78112558  0.28956105  0.27366071     0.03100
C633        C  0.65132434  0.20557577  0.26417695     0.37800
C634        C  0.84830559  0.29560573  0.23491031     0.37800
C635        C  0.81443750  0.32815561  0.29946127     0.36200
C636        C  0.68522952  0.17316776  0.19950344     0.36200
N637        N  0.84116844  0.35885281  0.31992092    -0.38600
N638        N  0.65852164  0.14265428  0.17886161    -0.38600
N639        N  0.88823985  0.31480391  0.22934705    -0.38100
N640        N  0.61137615  0.18643825  0.26964671    -0.38100
Fe641      Fe  0.63126240  0.36759326  0.87515151     1.65800
Fe642      Fe  0.73403468  0.36737966  0.87494901     1.73200
Fe643      Fe  0.63127251  0.26418686  0.87485378     1.54400
O644        O  0.58076963  0.25853662  0.91635347    -0.81100
O645        O  0.73732203  0.33025753  0.82418631    -0.79400
O646        O  0.59118798  0.32982423  0.92634799    -0.83600
O647        O  0.58069788  0.32260493  0.83375779    -0.78400
O648        O  0.66822075  0.25996613  0.92579741    -0.80200
O649        O  0.73896390  0.41739113  0.83238823    -0.83000
C650        C  0.57122856  0.28518803  0.81493893     0.97800
C651        C  0.57133663  0.28649941  0.93516907     1.05200
O652        O  0.66551095  0.33304628  0.87498123    -1.11900
O653        O  0.73734777  0.40781086  0.92569735    -0.74400
O654        O  0.67676946  0.41820234  0.91620945    -0.77900
O655        O  0.59108265  0.26174510  0.82371640    -0.78600
C656        C  0.71448493  0.42797999  0.93490039     0.96700
O657        O  0.66810002  0.40878356  0.82416390    -0.76500
O658        O  0.73906855  0.32235904  0.91752039    -0.81700
C659        C  0.71443590  0.28718339  0.81496991     0.99300
C660        C  0.71111613  0.28398410  0.93559206     1.05200
O661        O  0.67672217  0.25917593  0.83368227    -0.77300
C662        C  0.71098631  0.42773920  0.81434972     1.03500
Fe663      Fe  0.86849647  0.13293757  0.62515241     1.65800
Fe664      Fe  0.76572950  0.13317276  0.62496660     1.73200
Fe665      Fe  0.86853096  0.23633454  0.62488713     1.54400
O666        O  0.90858766  0.23898860  0.67623078    -0.81100
O667        O  0.76078557  0.17807161  0.58218574    -0.79400
O668        O  0.91906879  0.17815559  0.66645040    -0.83600
O669        O  0.90858212  0.17041279  0.57383729    -0.78400
O670        O  0.82297175  0.24153730  0.66576979    -0.80200
O671        O  0.76245579  0.09252553  0.57441523    -0.83000
C672        C  0.92851401  0.21371331  0.56489580     0.97800
C673        C  0.92848088  0.21561929  0.68516073     1.05200
O674        O  0.83425831  0.16748494  0.62500643    -1.11900
O675        O  0.76073092  0.08329317  0.66772401    -0.74400
O676        O  0.83161910  0.09202773  0.67624707    -0.77900
O677        O  0.91913334  0.24178084  0.58359281    -0.78600
C678        C  0.78869301  0.07303419  0.68592607     0.96700
O679        O  0.82296646  0.08209325  0.58428024    -0.76500
O680        O  0.76237567  0.17050081  0.67552736    -0.81700
C681        C  0.78878759  0.21635315  0.56400226     0.99300
C682        C  0.78523855  0.21364019  0.68451207     1.05200
O683        O  0.83169931  0.24033768  0.57375246    -0.77300
C684        C  0.78527920  0.07223854  0.56549310     1.03500
C685        C  0.96482938  0.23272964  0.53150678    -0.04700
C686        C  0.95505469  0.21229469  0.99109332    -0.01900
C687        C  0.99025951  0.22888266  0.96000538     0.03100
C688        C  0.53506281  0.26734322  0.96857579    -0.04700
C689        C  0.54486986  0.28769834  0.50901004    -0.01800
C690        C  0.50964041  0.27119819  0.54006094     0.03100
C691        C  0.90781385  0.17657568  0.98041969     0.37800
C692        C  0.59217543  0.32322677  0.51972967     0.37800
C693        C  0.51981311  0.29400971  0.58080931     0.36200
C694        C  0.98007371  0.20622467  0.91917882     0.36200
N695        N  0.52807414  0.31275965  0.61303935    -0.38600
N696        N  0.97183636  0.18764163  0.88686622    -0.38600
N697        N  0.63007485  0.35081001  0.52859017    -0.38100
N698        N  0.86998156  0.14880761  0.97156041    -0.38100
C699        C  0.96479482  0.23289927  0.71854305    -0.04700
C700        C  0.95504033  0.24342183  0.75901561    -0.01900
C701        C  0.99019614  0.26178804  0.79015716     0.03100
C702        C  0.53493802  0.26807141  0.78155655    -0.04700
C703        C  0.54473106  0.25768346  0.74105786    -0.01800
C704        C  0.50954790  0.23919139  0.70995834     0.03100
C705        C  0.90786650  0.23203149  0.76968749     0.37800
C706        C  0.59198819  0.26940332  0.73032045     0.37800
C707        C  0.51972323  0.22677566  0.66911147     0.36200
C708        C  0.98001752  0.27405719  0.83107608     0.36200
N709        N  0.52799611  0.21647080  0.63680322    -0.38600
N710        N  0.97177795  0.28423631  0.86346189    -0.38600
N711        N  0.62984439  0.27966791  0.72141890    -0.38100
N712        N  0.87009458  0.22209033  0.77857433    -0.38100
C713        C  0.76970798  0.03638874  0.71928018    -0.04700
C714        C  0.77360310  0.99594461  0.71521607    -0.01900
C715        C  0.75390089  0.46014278  0.74600712     0.03100
C716        C  0.72989975  0.46437720  0.78097481    -0.04700
C717        C  0.72594457  0.50479577  0.78500372    -0.01800
C718        C  0.74568543  0.04061765  0.75422697     0.03100
C719        C  0.79620724  0.99023372  0.67839397     0.37800
C720        C  0.70320792  0.51044676  0.82175204     0.37800
C721        C  0.74244491  0.08250175  0.75923078     0.36200
C722        C  0.75715548  0.41827018  0.74097626     0.36200
N723        N  0.73987903  0.11588860  0.76334055    -0.39000
N724        N  0.75975481  0.38490857  0.73681567    -0.38600
N725        N  0.68522301  0.51498926  0.85114553    -0.38100
N726        N  0.81406364  0.98563718  0.64893140    -0.38100
C727        C  0.73255560  0.46476934  0.96848366    -0.04700
C728        C  0.70147663  0.47320703  0.99267334    -0.01900
C729        C  0.71857785  0.00756157  0.52446562     0.03100
C730        C  0.76720108  0.03523585  0.53211477    -0.04700
C731        C  0.79826989  0.02670424  0.50802311    -0.01800
C732        C  0.78117476  0.49233700  0.97624284     0.03100
C733        C  0.65139512  0.44650607  0.98557434     0.37800
C734        C  0.84833423  0.05329308  0.51524515     0.37800
C735        C  0.81448278  0.48720608  0.95035339     0.36200
C736        C  0.68529165  0.01252770  0.55054098     0.36200
N737        N  0.84120456  0.48336726  0.92980903    -0.38600
N738        N  0.65859374  0.01621294  0.57126104    -0.38600
N739        N  0.88824900  0.07395071  0.52093871    -0.38100
N740        N  0.61146157  0.42575314  0.97999997    -0.38100
C741        C  0.73006309  0.26628028  0.96895861    -0.04700
C742        C  0.72564077  0.22167637  0.96514001    -0.01900
C743        C  0.74541180  0.20560011  0.99586455     0.03100
C744        C  0.76986598  0.23404224  0.53061109    -0.04700
C745        C  0.77423600  0.27861685  0.53446086    -0.01800
C746        C  0.75451860  0.29471832  0.50371215     0.03100
C747        C  0.70230677  0.19298669  0.92867743     0.37800
C748        C  0.79738547  0.30721182  0.57102363     0.37800
C749        C  0.75814962  0.34002962  0.50863334     0.36200
C750        C  0.74180161  0.16029524  0.99096187     0.36200
N751        N  0.76103423  0.37612882  0.51273544    -0.38600
N752        N  0.73895306  0.12420654  0.98690043    -0.38600
N753        N  0.81570583  0.32988822  0.60027392    -0.38100
N754        N  0.68380471  0.17021754  0.89952178    -0.38100
C755        C  0.73250143  0.26848562  0.78137727    -0.04700
C756        C  0.70141796  0.22890853  0.75719157    -0.01900
C757        C  0.71852025  0.21156857  0.72549624     0.03100
C758        C  0.76714968  0.23253918  0.71789227    -0.04700
C759        C  0.79822355  0.27219490  0.74198854    -0.01800
C760        C  0.78112555  0.28956110  0.77366075     0.03100
C761        C  0.65132435  0.20557586  0.76417693     0.37800
C762        C  0.84830577  0.29560575  0.73491039     0.37800
C763        C  0.81443751  0.32815554  0.79946128     0.36200
C764        C  0.68522949  0.17316777  0.69950349     0.36200
N765        N  0.84116836  0.35885256  0.81992095    -0.38600
N766        N  0.65852154  0.14265411  0.67886169    -0.38600
N767        N  0.88823969  0.31480364  0.72934721    -0.38100
N768        N  0.61137611  0.18643821  0.76964666    -0.38100
Fe769      Fe  0.63126230  0.86759314  0.37515157     1.65800
Fe770      Fe  0.73403463  0.86737964  0.37494896     1.73200
Fe771      Fe  0.63127248  0.76418680  0.37485388     1.54400
O772        O  0.58076952  0.75853645  0.41635338    -0.81100
O773        O  0.73732216  0.83025760  0.32418636    -0.79400
O774        O  0.59118784  0.82982406  0.42634793    -0.83600
O775        O  0.58069786  0.82260502  0.33375785    -0.78400
O776        O  0.66822059  0.75996593  0.42579732    -0.80200
O777        O  0.73896397  0.91739100  0.33238823    -0.83000
C778        C  0.57122837  0.78518785  0.31493894     0.97800
C779        C  0.57133661  0.78649934  0.43516896     1.05200
O780        O  0.66551082  0.83304614  0.37498118    -1.11900
O781        O  0.73734799  0.90781069  0.42569726    -0.74400
O782        O  0.67676975  0.91820233  0.41620958    -0.77900
O783        O  0.59108272  0.76174517  0.32371646    -0.78600
C784        C  0.71448467  0.92797995  0.43490042     0.96700
O785        O  0.66810000  0.90878344  0.32416389    -0.76500
O786        O  0.73906840  0.82235897  0.41752037    -0.81700
C787        C  0.71443572  0.78718316  0.31497000     0.99300
C788        C  0.71111616  0.78398402  0.43559213     1.05200
O789        O  0.67672217  0.75917592  0.33368231    -0.77300
C790        C  0.71098628  0.92773921  0.31434966     1.03500
Fe791      Fe  0.86849654  0.63293761  0.12515231     1.65800
Fe792      Fe  0.76572954  0.63317269  0.12496661     1.73200
Fe793      Fe  0.86853105  0.73633456  0.12488713     1.54400
O794        O  0.90858751  0.73898878  0.17623070    -0.81100
O795        O  0.76078575  0.67807194  0.08218555    -0.79400
O796        O  0.91906865  0.67815560  0.16645040    -0.83600
O797        O  0.90858200  0.67041271  0.07383736    -0.78400
O798        O  0.82297194  0.74153756  0.16576959    -0.80200
O799        O  0.76245554  0.59252569  0.07441523    -0.83000
C800        C  0.92851406  0.71371331  0.06489575     0.97800
C801        C  0.92848089  0.71561922  0.18516074     1.05200
O802        O  0.83425832  0.66748499  0.12500649    -1.11900
O803        O  0.76073087  0.58329327  0.16772386    -0.74400
O804        O  0.83161899  0.59202781  0.17624690    -0.77900
O805        O  0.91913325  0.74178070  0.08359276    -0.78600
C806        C  0.78869288  0.57303421  0.18592605     0.96700
O807        O  0.82296618  0.58209334  0.08428010    -0.76500
O808        O  0.76237578  0.67050094  0.17552734    -0.81700
C809        C  0.78878751  0.71635310  0.06400216     0.99300
C810        C  0.78523853  0.71364021  0.18451201     1.05200
O811        O  0.83169949  0.74033788  0.07375232    -0.77300
C812        C  0.78527937  0.57223857  0.06549315     1.03500
C813        C  0.96482934  0.73272956  0.03150684    -0.04700
C814        C  0.95505457  0.71229466  0.49109354    -0.01900
C815        C  0.99025960  0.72888274  0.46000535     0.03100
C816        C  0.53506273  0.76734315  0.46857576    -0.04700
C817        C  0.54486997  0.78769846  0.00900988    -0.01800
C818        C  0.50964044  0.77119825  0.04006097     0.03100
C819        C  0.90781379  0.67657569  0.48041965     0.37800
C820        C  0.59217548  0.82322680  0.01972971     0.37800
C821        C  0.51981312  0.79400985  0.08080935     0.36200
C822        C  0.98007352  0.70622462  0.41917883     0.36200
N823        N  0.52807417  0.81275974  0.11303929    -0.38600
N824        N  0.97183623  0.68764157  0.38686630    -0.38600
N825        N  0.63007502  0.85081012  0.02859027    -0.38100
N826        N  0.86998155  0.64880763  0.47156051    -0.38100
C827        C  0.96479456  0.73289922  0.21854300    -0.04700
C828        C  0.95504045  0.74342183  0.25901553    -0.01900
C829        C  0.99019585  0.76178794  0.29015720     0.03100
C830        C  0.53493813  0.76807138  0.28155657    -0.04700
C831        C  0.54473089  0.75768351  0.24105787    -0.01800
C832        C  0.50954799  0.73919151  0.20995815     0.03100
C833        C  0.90786629  0.73203149  0.26968755     0.37800
C834        C  0.59198829  0.76940338  0.23032043     0.37800
C835        C  0.51972311  0.72677570  0.16911159     0.36200
C836        C  0.98001763  0.77405723  0.33107582     0.36200
N837        N  0.52799613  0.71647091  0.13680296    -0.38600
N838        N  0.97177782  0.78423629  0.36346206    -0.38600
N839        N  0.62984408  0.77966783  0.22141887    -0.38100
N840        N  0.87009459  0.72209030  0.27857430    -0.38100
C841        C  0.76970793  0.53638857  0.21928002    -0.04700
C842        C  0.77360302  0.49594448  0.21521608    -0.01900
C843        C  0.75390081  0.96014272  0.24600708     0.03100
C844        C  0.72989971  0.96437704  0.28097472    -0.04700
C845        C  0.72594449  0.00479552  0.28500368    -0.01800
C846        C  0.74568540  0.54061773  0.25422696     0.03100
C847        C  0.79620722  0.49023360  0.17839388     0.37800
C848        C  0.70320788  0.01044672  0.32175221     0.37800
C849        C  0.74244491  0.58250170  0.25923070     0.36200
C850        C  0.75715527  0.91827019  0.24097620     0.36200
N851        N  0.73987908  0.61588868  0.26334054    -0.39000
N852        N  0.75975480  0.88490840  0.23681557    -0.38600
N853        N  0.68522321  0.01498930  0.35114550    -0.38100
N854        N  0.81406352  0.48563711  0.14893145    -0.38100
C855        C  0.73255583  0.96476930  0.46848371    -0.04700
C856        C  0.70147669  0.97320718  0.49267347    -0.01900
C857        C  0.71857789  0.50756170  0.02446570     0.03100
C858        C  0.76720080  0.53523577  0.03211477    -0.04700
C859        C  0.79826993  0.52670422  0.00802296    -0.01800
C860        C  0.78117473  0.99233686  0.47624279     0.03100
C861        C  0.65139502  0.94650602  0.48557426     0.37800
C862        C  0.84833418  0.55329321  0.01524514     0.37800
C863        C  0.81448283  0.98720607  0.45035338     0.36200
C864        C  0.68529145  0.51252777  0.05054094     0.36200
N865        N  0.84120474  0.98336710  0.42980906    -0.38600
N866        N  0.65859356  0.51621285  0.07126116    -0.38600
N867        N  0.88824900  0.57395065  0.02093870    -0.38100
N868        N  0.61146171  0.92575316  0.47999998    -0.38100
C869        C  0.73006292  0.76628020  0.46895866    -0.04700
C870        C  0.72564068  0.72167613  0.46514012    -0.01900
C871        C  0.74541173  0.70560012  0.49586460     0.03100
C872        C  0.76986600  0.73404240  0.03061093    -0.04700
C873        C  0.77423608  0.77861693  0.03446082    -0.01800
C874        C  0.75451864  0.79471835  0.00371210     0.03100
C875        C  0.70230687  0.69298671  0.42867744     0.37800
C876        C  0.79738536  0.80721185  0.07102361     0.37800
C877        C  0.75814958  0.84002963  0.00863332     0.36200
C878        C  0.74180174  0.66029526  0.49096191     0.36200
N879        N  0.76103435  0.87612880  0.01273547    -0.38600
N880        N  0.73895314  0.62420655  0.48690041    -0.38600
N881        N  0.81570571  0.82988817  0.10027394    -0.38100
N882        N  0.68380467  0.67021737  0.39952180    -0.38100
C883        C  0.73250167  0.76848582  0.28137734    -0.04700
C884        C  0.70141782  0.72890843  0.25719159    -0.01900
C885        C  0.71852045  0.71156869  0.22549615     0.03100
C886        C  0.76714989  0.73253938  0.21789220    -0.04700
C887        C  0.79822357  0.77219496  0.24198854    -0.01800
C888        C  0.78112560  0.78956105  0.27366071     0.03100
C889        C  0.65132443  0.70557584  0.26417689     0.37800
C890        C  0.84830561  0.79560575  0.23491033     0.37800
C891        C  0.81443754  0.82815564  0.29946130     0.36200
C892        C  0.68522950  0.67316780  0.19950337     0.36200
N893        N  0.84116847  0.85885280  0.31992091    -0.38600
N894        N  0.65852163  0.64265440  0.17886161    -0.38600
N895        N  0.88823999  0.81480394  0.22934704    -0.38100
N896        N  0.61137619  0.68643832  0.26964658    -0.38100
Fe897      Fe  0.63126240  0.86759323  0.87515158     1.65800
Fe898      Fe  0.73403469  0.86737971  0.87494894     1.73200
Fe899      Fe  0.63127251  0.76418687  0.87485380     1.54400
O900        O  0.58076965  0.75853654  0.91635341    -0.81100
O901        O  0.73732207  0.83025752  0.82418634    -0.79400
O902        O  0.59118794  0.82982414  0.92634797    -0.83600
O903        O  0.58069794  0.82260498  0.83375773    -0.78400
O904        O  0.66822064  0.75996605  0.92579732    -0.80200
O905        O  0.73896414  0.91739111  0.83238836    -0.83000
C906        C  0.57122859  0.78518807  0.81493892     0.97800
C907        C  0.57133664  0.78649945  0.93516911     1.05200
O908        O  0.66551099  0.83304628  0.87498122    -1.11900
O909        O  0.73734786  0.90781087  0.92569733    -0.74400
O910        O  0.67676956  0.91820235  0.91620947    -0.77900
O911        O  0.59108269  0.76174512  0.82371642    -0.78600
C912        C  0.71448491  0.92798002  0.93490038     0.96700
O913        O  0.66810029  0.90878366  0.82416397    -0.76500
O914        O  0.73906850  0.82235904  0.91752040    -0.81700
C915        C  0.71443587  0.78718333  0.81496994     0.99300
C916        C  0.71111607  0.78398414  0.93559204     1.05200
O917        O  0.67672217  0.75917593  0.83368224    -0.77300
C918        C  0.71098628  0.92773924  0.81434978     1.03500
Fe919      Fe  0.86849642  0.63293758  0.62515237     1.65800
Fe920      Fe  0.76572950  0.63317276  0.62496663     1.73200
Fe921      Fe  0.86853091  0.73633453  0.62488710     1.54400
O922        O  0.90858756  0.73898873  0.67623083    -0.81100
O923        O  0.76078560  0.67807174  0.58218574    -0.79400
O924        O  0.91906871  0.67815572  0.66645039    -0.83600
O925        O  0.90858206  0.67041282  0.57383727    -0.78400
O926        O  0.82297166  0.74153729  0.66576977    -0.80200
O927        O  0.76245545  0.59252562  0.57441525    -0.83000
C928        C  0.92851397  0.71371331  0.56489580     0.97800
C929        C  0.92848086  0.71561929  0.68516075     1.05200
O930        O  0.83425821  0.66748494  0.62500646    -1.11900
O931        O  0.76073087  0.58329315  0.66772402    -0.74400
O932        O  0.83161905  0.59202780  0.67624707    -0.77900
O933        O  0.91913340  0.74178089  0.58359282    -0.78600
C934        C  0.78869293  0.57303421  0.68592605     0.96700
O935        O  0.82296608  0.58209327  0.58428015    -0.76500
O936        O  0.76237564  0.67050077  0.67552741    -0.81700
C937        C  0.78878745  0.71635314  0.56400224     0.99300
C938        C  0.78523864  0.71364030  0.68451208     1.05200
O939        O  0.83169943  0.74033780  0.57375241    -0.77300
C940        C  0.78527929  0.57223855  0.56549312     1.03500
C941        C  0.96482931  0.73272961  0.53150674    -0.04700
C942        C  0.95505467  0.71229470  0.99109331    -0.01900
C943        C  0.99025959  0.72888269  0.96000543     0.03100
C944        C  0.53506277  0.76734320  0.96857573    -0.04700
C945        C  0.54486993  0.78769842  0.50901002    -0.01800
C946        C  0.50964030  0.77119815  0.54006096     0.03100
C947        C  0.90781392  0.67657570  0.98041972     0.37800
C948        C  0.59217538  0.82322672  0.51972968     0.37800
C949        C  0.51981316  0.79400975  0.58080935     0.36200
C950        C  0.98007373  0.70622467  0.91917881     0.36200
N951        N  0.52807416  0.81275964  0.61303932    -0.38600
N952        N  0.97183643  0.68764163  0.88686622    -0.38600
N953        N  0.63007492  0.85081002  0.52859017    -0.38100
N954        N  0.86998153  0.64880756  0.97156038    -0.38100
C955        C  0.96479482  0.73289936  0.71854306    -0.04700
C956        C  0.95504037  0.74342187  0.75901561    -0.01900
C957        C  0.99019601  0.76178803  0.79015713     0.03100
C958        C  0.53493811  0.76807145  0.78155653    -0.04700
C959        C  0.54473106  0.75768348  0.74105786    -0.01800
C960        C  0.50954783  0.73919138  0.70995833     0.03100
C961        C  0.90786650  0.73203151  0.76968749     0.37800
C962        C  0.59198822  0.76940333  0.73032044     0.37800
C963        C  0.51972324  0.72677570  0.66911149     0.36200
C964        C  0.98001759  0.77405719  0.83107603     0.36200
N965        N  0.52799602  0.71647081  0.63680319    -0.38600
N966        N  0.97177795  0.78423633  0.86346194    -0.38600
N967        N  0.62984437  0.77966789  0.72141890    -0.38100
N968        N  0.87009456  0.72209035  0.77857435    -0.38100
C969        C  0.76970793  0.53638869  0.71928019    -0.04700
C970        C  0.77360304  0.49594464  0.71521609    -0.01900
C971        C  0.75390096  0.96014284  0.74600714     0.03100
C972        C  0.72989982  0.96437710  0.78097479    -0.04700
C973        C  0.72594463  0.00479577  0.78500371    -0.01800
C974        C  0.74568546  0.54061770  0.75422698     0.03100
C975        C  0.79620739  0.49023378  0.67839414     0.37800
C976        C  0.70320804  0.01044683  0.82175210     0.37800
C977        C  0.74244491  0.58250174  0.75923082     0.36200
C978        C  0.75715528  0.91827005  0.74097612     0.36200
N979        N  0.73987909  0.61588864  0.76334058    -0.39000
N980        N  0.75975468  0.88490843  0.73681561    -0.38600
N981        N  0.68522318  0.01498939  0.85114548    -0.38100
N982        N  0.81406366  0.48563720  0.64893142    -0.38100
C983        C  0.73255557  0.96476935  0.96848366    -0.04700
C984        C  0.70147658  0.97320703  0.99267340    -0.01900
C985        C  0.71857782  0.50756157  0.52446562     0.03100
C986        C  0.76720081  0.53523585  0.53211479    -0.04700
C987        C  0.79826984  0.52670425  0.50802310    -0.01800
C988        C  0.78117478  0.99233700  0.97624288     0.03100
C989        C  0.65139498  0.94650599  0.98557440     0.37800
C990        C  0.84833424  0.55329313  0.51524520     0.37800
C991        C  0.81448274  0.98720612  0.95035339     0.36200
C992        C  0.68529158  0.51252760  0.55054094     0.36200
N993        N  0.84120465  0.98336728  0.92980898    -0.38600
N994        N  0.65859344  0.51621274  0.57126111    -0.38600
N995        N  0.88824878  0.57395063  0.52093875    -0.38100
N996        N  0.61146169  0.92575319  0.98000002    -0.38100
C997        C  0.73006312  0.76628032  0.96895860    -0.04700
C998        C  0.72564070  0.72167618  0.96514004    -0.01900
C999        C  0.74541177  0.70560016  0.99586453     0.03100
C1000       C  0.76986599  0.73404235  0.53061110    -0.04700
C1001       C  0.77423601  0.77861689  0.53446082    -0.01800
C1002       C  0.75451867  0.79471839  0.50371212     0.03100
C1003       C  0.70230687  0.69298677  0.92867747     0.37800
C1004       C  0.79738545  0.80721190  0.57102367     0.37800
C1005       C  0.75814963  0.84002961  0.50863334     0.36200
C1006       C  0.74180164  0.66029522  0.99096186     0.36200
N1007       N  0.76103429  0.87612882  0.51273540    -0.38600
N1008       N  0.73895310  0.62420662  0.98690042    -0.38600
N1009       N  0.81570580  0.82988819  0.60027390    -0.38100
N1010       N  0.68380469  0.67021749  0.89952169    -0.38100
C1011       C  0.73250152  0.76848567  0.78137728    -0.04700
C1012       C  0.70141785  0.72890847  0.75719160    -0.01900
C1013       C  0.71852035  0.71156863  0.72549628     0.03100
C1014       C  0.76714959  0.73253913  0.71789226    -0.04700
C1015       C  0.79822361  0.77219497  0.74198854    -0.01800
C1016       C  0.78112552  0.78956108  0.77366070     0.03100
C1017       C  0.65132447  0.70557591  0.76417694     0.37800
C1018       C  0.84830560  0.79560569  0.73491040     0.37800
C1019       C  0.81443758  0.82815564  0.79946133     0.36200
C1020       C  0.68522944  0.67316773  0.69950348     0.36200
N1021       N  0.84116828  0.85885260  0.81992092    -0.38600
N1022       N  0.65852162  0.64265416  0.67886173    -0.38600
N1023       N  0.88823977  0.81480376  0.72934717    -0.38100
N1024       N  0.61137602  0.68643815  0.76964668    -0.38100
loop_ 
_geom_bond_atom_site_label_1 
_geom_bond_atom_site_label_2 
_geom_bond_distance 
_geom_bond_site_symmetry_2 
_ccdc_geom_bond_type 
Fe1          O17   2.066       .  S
Fe1           O7   2.062       .  S
Fe1          O14   2.063       .  S
Fe1           O6   2.068       .  S
Fe1          O12   1.971       .  S
Fe2           O5   2.067       .  S
Fe2           O9   2.068       .  S
Fe2          O13   2.066       .  S
Fe2          O18   2.068       .  S
Fe2          O12   1.963       .  S
Fe3          O21   2.064       .  S
Fe3           O8   2.066       .  S
Fe3          O15   2.068       .  S
Fe3           O4   2.063       .  S
Fe3          O12   1.971       .  S
O4           C11   1.268       .  A
O5           C19   1.270       .  A
O6           C11   1.271       .  A
O7           C10   1.268       .  A
O8           C20   1.270       .  A
O9           C22   1.269       .  A
C10          O15   1.271       .  A
C10          C62   1.483       .  S
C11          C48   1.483       .  S
O13          C16   1.270       .  A
O14          C16   1.267       .  A
C16          C87   1.502       .  S
O17          C22   1.270       .  A
O18          C20   1.269       .  A
C19          O21   1.267       .  A
C19         C115   1.503       .  S
C20         C101   1.485       .  S
C22          C76   1.484       .  S
Fe23         O39   2.063       .  S
Fe23         O29   2.068       .  S
Fe23         O36   2.066       .  S
Fe23         O28   2.063       .  S
Fe23         O34   1.971       .  S
Fe24         O27   2.068       .  S
Fe24         O31   2.066       .  S
Fe24         O35   2.068       .  S
Fe24         O40   2.067       .  S
Fe24         O34   1.963       .  S
Fe25         O43   2.066       .  S
Fe25         O30   2.063       .  S
Fe25         O37   2.064       .  S
Fe25         O26   2.068       .  S
Fe25         O34   1.971       .  S
O26          C33   1.271       .  A
O27          C41   1.269       .  A
O28          C33   1.268       .  A
O29          C32   1.271       .  A
O30          C42   1.267       .  A
O31          C44   1.270       .  A
C32          O37   1.268       .  A
C32          C45   1.483       .  S
C33          C59   1.483       .  S
O35          C38   1.269       .  A
O36          C38   1.270       .  A
C38          C73   1.484       .  S
O39          C44   1.267       .  A
O40          C42   1.270       .  A
C41          O43   1.270       .  A
C41         C104   1.485       .  S
C42         C118   1.502       .  S
C44          C90   1.502       .  S
C45         C174   1.411   1_554  A
C45         C562   1.416       .  A
C46          C47   1.410       .  A
C46         C173   1.411       .  A
C46          C51   1.451       .  S
C47         C560   1.415       .  A
C47          C54   1.451       .  S
C48         C559   1.415   1_455  A
C48         C177   1.411       .  A
C49          C50   1.410       .  A
C49         C176   1.411   1_554  A
C49          C52   1.451       .  S
C50         C557   1.416   1_455  A
C50          C53   1.451       .  S
C51          N58   1.157       .  T
C52          N57   1.157       .  T
C53          N55   1.157       .  T
C54          N56   1.157       .  T
C59          C60   1.411       .  A
C59         C576   1.416       .  A
C60          C61   1.410       .  A
C60          C65   1.451       .  S
C61         C574   1.415       .  A
C61          C68   1.451       .  S
C62          C63   1.411       .  A
C62         C573   1.415   1_455  A
C63          C64   1.410       .  A
C63          C66   1.451       .  S
C64         C571   1.416   1_455  A
C64          C67   1.451       .  S
C65          N72   1.157       .  T
C66          N71   1.157       .  T
C67          N69   1.157       .  T
C68          N70   1.157       .  T
C73          C74   1.413   1_545  A
C73          C78   1.413       .  A
C74         C331   1.411       .  A
C74          C79   1.452       .  S
C75          C76   1.413       .  A
C75         C330   1.411       .  A
C75          C82   1.452       .  S
C76          C77   1.414       .  A
C77         C334   1.411       .  A
C77          C80   1.452       .  S
C78         C333   1.411       .  A
C78          C81   1.452       .  S
C79          N86   1.157       .  T
C80          N85   1.157       .  T
C81          N83   1.157       .  T
C82          N84   1.157       .  T
C87          C88   1.421       .  A
C87          C92   1.418       .  A
C88         C473   1.412       .  A
C88          C93   1.453       .  S
C89          C90   1.418       .  A
C89         C472   1.412   1_544  A
C89          C96   1.454       .  S
C90          C91   1.421       .  A
C91         C476   1.412   1_544  A
C91          C94   1.453       .  S
C92         C475   1.412       .  A
C92          C95   1.454       .  S
C93         N100   1.158       .  T
C94          N99   1.158       .  T
C95          N97   1.157       .  T
C96          N98   1.157       .  T
C101        C102   1.414       .  A
C101        C234   1.414       .  A
C102        C103   1.412       .  A
C102        C107   1.452       .  S
C103        C232   1.414       .  A
C103        C110   1.452       .  S
C104        C105   1.414       .  A
C104        C231   1.414   1_554  A
C105        C106   1.412       .  A
C105        C108   1.452       .  S
C106        C229   1.414   1_554  A
C106        C109   1.452       .  S
C107        N114   1.157       .  T
C108        N113   1.157       .  T
C109        N111   1.157       .  T
C110        N112   1.157       .  T
C115        C116   1.421       .  A
C115        C120   1.418       .  A
C116        C117   1.413       .  A
C116        C121   1.453       .  S
C117        C118   1.418       .  A
C117        C124   1.454       .  S
C118        C119   1.421       .  A
C119        C120   1.413       .  A
C119        C122   1.453       .  S
C120        C123   1.453       .  S
C121        N128   1.158       .  T
C122        N127   1.158       .  T
C123        N125   1.157       .  T
C124        N126   1.157       .  T
Fe129       O145   2.066       .  S
Fe129       O135   2.062       .  S
Fe129       O142   2.063       .  S
Fe129       O134   2.067       .  S
Fe129       O140   1.971       .  S
Fe130       O133   2.067       .  S
Fe130       O137   2.068       .  S
Fe130       O141   2.066       .  S
Fe130       O146   2.068       .  S
Fe130       O140   1.963       .  S
Fe131       O149   2.064       .  S
Fe131       O136   2.066       .  S
Fe131       O143   2.068       .  S
Fe131       O132   2.063       .  S
Fe131       O140   1.971       .  S
O132        C139   1.268       .  A
O133        C147   1.270       .  A
O134        C139   1.271       .  A
O135        C138   1.268       .  A
O136        C148   1.270       .  A
O137        C150   1.269       .  A
C138        O143   1.271       .  A
C138        C190   1.483       .  S
C139        C176   1.483       .  S
O141        C144   1.270       .  A
O142        C144   1.267       .  A
C144        C215   1.502       .  S
O145        C150   1.270       .  A
O146        C148   1.269       .  A
C147        O149   1.267       .  A
C147        C243   1.503       .  S
C148        C229   1.485       .  S
C150        C204   1.484       .  S
Fe151       O167   2.063       .  S
Fe151       O157   2.068       .  S
Fe151       O164   2.066       .  S
Fe151       O156   2.063       .  S
Fe151       O162   1.971       .  S
Fe152       O155   2.068       .  S
Fe152       O159   2.066       .  S
Fe152       O163   2.068       .  S
Fe152       O168   2.067       .  S
Fe152       O162   1.963       .  S
Fe153       O171   2.066       .  S
Fe153       O158   2.063       .  S
Fe153       O165   2.064       .  S
Fe153       O154   2.068       .  S
Fe153       O162   1.971       .  S
O154        C161   1.271       .  A
O155        C169   1.269       .  A
O156        C161   1.268       .  A
O157        C160   1.271       .  A
O158        C170   1.267       .  A
O159        C172   1.270       .  A
C160        O165   1.268       .  A
C160        C173   1.483       .  S
C161        C187   1.483       .  S
O163        C166   1.269       .  A
O164        C166   1.270       .  A
C166        C201   1.484       .  S
O167        C172   1.267       .  A
O168        C170   1.270       .  A
C169        O171   1.270       .  A
C169        C232   1.485       .  S
C170        C246   1.502       .  S
C172        C218   1.502       .  S
C173        C690   1.416       .  A
C174        C175   1.410       .  A
C174        C179   1.451       .  S
C175        C688   1.415       .  A
C175        C182   1.451       .  S
C176        C687   1.415   1_455  A
C177        C178   1.410       .  A
C177        C180   1.451       .  S
C178        C685   1.416   1_455  A
C178        C181   1.451       .  S
C179        N186   1.157       .  T
C180        N185   1.157       .  T
C181        N183   1.157       .  T
C182        N184   1.157       .  T
C187        C188   1.411       .  A
C187        C704   1.416       .  A
C188        C189   1.410       .  A
C188        C193   1.451       .  S
C189        C702   1.415       .  A
C189        C196   1.451       .  S
C190        C701   1.415   1_455  A
C190        C191   1.411       .  A
C191        C192   1.410       .  A
C191        C194   1.451       .  S
C192        C699   1.416   1_455  A
C192        C195   1.451       .  S
C193        N200   1.157       .  T
C194        N199   1.157       .  T
C195        N197   1.157       .  T
C196        N198   1.157       .  T
C201        C202   1.413   1_545  A
C201        C206   1.413       .  A
C202        C459   1.411       .  A
C202        C207   1.452       .  S
C203        C458   1.411       .  A
C203        C204   1.413       .  A
C203        C210   1.452       .  S
C204        C205   1.414       .  A
C205        C462   1.411       .  A
C205        C208   1.452       .  S
C206        C461   1.411       .  A
C206        C209   1.452       .  S
C207        N214   1.157       .  T
C208        N213   1.157       .  T
C209        N211   1.157       .  T
C210        N212   1.157       .  T
C215        C216   1.421       .  A
C215        C220   1.418       .  A
C216        C345   1.412   1_556  A
C216        C221   1.453       .  S
C217        C344   1.412   1_545  A
C217        C218   1.418       .  A
C217        C224   1.454       .  S
C218        C219   1.421       .  A
C219        C348   1.412   1_545  A
C219        C222   1.453       .  S
C220        C347   1.412   1_556  A
C220        C223   1.454       .  S
C221        N228   1.158       .  T
C222        N227   1.158       .  T
C223        N225   1.157       .  T
C224        N226   1.157       .  T
C229        C230   1.414       .  A
C230        C231   1.412       .  A
C230        C235   1.452       .  S
C231        C238   1.452       .  S
C232        C233   1.414       .  A
C233        C234   1.412       .  A
C233        C236   1.452       .  S
C234        C237   1.452       .  S
C235        N242   1.157       .  T
C236        N241   1.157       .  T
C237        N239   1.157       .  T
C238        N240   1.157       .  T
C243        C244   1.421       .  A
C243        C248   1.418       .  A
C244        C245   1.413       .  A
C244        C249   1.453       .  S
C245        C246   1.418       .  A
C245        C252   1.454       .  S
C246        C247   1.421       .  A
C247        C248   1.413       .  A
C247        C250   1.453       .  S
C248        C251   1.453       .  S
C249        N256   1.158       .  T
C250        N255   1.158       .  T
C251        N253   1.157       .  T
C252        N254   1.157       .  T
Fe257       O273   2.066       .  S
Fe257       O263   2.062       .  S
Fe257       O270   2.063       .  S
Fe257       O262   2.067       .  S
Fe257       O268   1.971       .  S
Fe258       O261   2.067       .  S
Fe258       O265   2.068       .  S
Fe258       O269   2.066       .  S
Fe258       O274   2.068       .  S
Fe258       O268   1.963       .  S
Fe259       O277   2.064       .  S
Fe259       O264   2.066       .  S
Fe259       O271   2.068       .  S
Fe259       O260   2.063       .  S
Fe259       O268   1.971       .  S
O260        C267   1.268       .  A
O261        C275   1.270       .  A
O262        C267   1.271       .  A
O263        C266   1.268       .  A
O264        C276   1.270       .  A
O265        C278   1.269       .  A
C266        O271   1.271       .  A
C266        C318   1.483       .  S
C267        C304   1.483       .  S
O269        C272   1.270       .  A
O270        C272   1.267       .  A
C272        C343   1.502       .  S
O273        C278   1.270       .  A
O274        C276   1.269       .  A
C275        O277   1.267       .  A
C275        C371   1.503       .  S
C276        C357   1.485       .  S
C278        C332   1.484       .  S
Fe279       O295   2.063       .  S
Fe279       O285   2.068       .  S
Fe279       O292   2.066       .  S
Fe279       O284   2.063       .  S
Fe279       O290   1.971       .  S
Fe280       O283   2.068       .  S
Fe280       O287   2.066       .  S
Fe280       O291   2.068       .  S
Fe280       O296   2.067       .  S
Fe280       O290   1.963       .  S
Fe281       O299   2.066       .  S
Fe281       O286   2.063       .  S
Fe281       O293   2.064       .  S
Fe281       O282   2.068       .  S
Fe281       O290   1.971       .  S
O282        C289   1.271       .  A
O283        C297   1.269       .  A
O284        C289   1.268       .  A
O285        C288   1.271       .  A
O286        C298   1.267       .  A
O287        C300   1.270       .  A
C288        O293   1.268       .  A
C288        C301   1.483       .  S
C289        C315   1.483       .  S
O291        C294   1.269       .  A
O292        C294   1.270       .  A
C294        C329   1.484       .  S
O295        C300   1.267       .  A
O296        C298   1.270       .  A
C297        O299   1.270       .  A
C297        C360   1.485       .  S
C298        C374   1.502       .  S
C300        C346   1.502       .  S
C301        C430   1.411   1_554  A
C301        C818   1.416       .  A
C302        C429   1.411       .  A
C302        C303   1.410       .  A
C302        C307   1.451       .  S
C303        C816   1.415       .  A
C303        C310   1.451       .  S
C304        C815   1.415   1_455  A
C304        C433   1.411       .  A
C305        C432   1.411   1_554  A
C305        C306   1.410       .  A
C305        C308   1.451       .  S
C306        C813   1.416   1_455  A
C306        C309   1.451       .  S
C307        N314   1.157       .  T
C308        N313   1.157       .  T
C309        N311   1.157       .  T
C310        N312   1.157       .  T
C315        C316   1.411       .  A
C315        C832   1.416       .  A
C316        C317   1.410       .  A
C316        C321   1.451       .  S
C317        C830   1.415       .  A
C317        C324   1.451       .  S
C318        C829   1.415   1_455  A
C318        C319   1.411       .  A
C319        C320   1.410       .  A
C319        C322   1.451       .  S
C320        C827   1.416   1_455  A
C320        C323   1.451       .  S
C321        N328   1.157       .  T
C322        N327   1.157       .  T
C323        N325   1.157       .  T
C324        N326   1.157       .  T
C329        C330   1.413       .  A
C329        C334   1.413       .  A
C330        C335   1.452       .  S
C331        C332   1.413       .  A
C331        C338   1.452       .  S
C332        C333   1.414   1_565  A
C333        C336   1.452       .  S
C334        C337   1.452       .  S
C335        N342   1.157       .  T
C336        N341   1.157       .  T
C337        N339   1.157       .  T
C338        N340   1.157       .  T
C343        C344   1.421       .  A
C343        C348   1.418       .  A
C344        C349   1.453       .  S
C345        C346   1.418       .  A
C345        C352   1.454       .  S
C346        C347   1.421       .  A
C347        C350   1.453       .  S
C348        C351   1.453       .  S
C349        N356   1.158       .  T
C350        N355   1.158       .  T
C351        N353   1.157       .  T
C352        N354   1.157       .  T
C357        C358   1.414       .  A
C357        C490   1.414       .  A
C358        C359   1.412       .  A
C358        C363   1.452       .  S
C359        C488   1.414       .  A
C359        C366   1.452       .  S
C360        C487   1.414   1_554  A
C360        C361   1.414       .  A
C361        C362   1.412       .  A
C361        C364   1.452       .  S
C362        C485   1.414   1_554  A
C362        C365   1.452       .  S
C363        N370   1.157       .  T
C364        N369   1.157       .  T
C365        N367   1.157       .  T
C366        N368   1.157       .  T
C371        C372   1.421       .  A
C371        C376   1.418       .  A
C372        C373   1.413       .  A
C372        C377   1.453       .  S
C373        C374   1.418       .  A
C373        C380   1.454       .  S
C374        C375   1.421       .  A
C375        C376   1.413       .  A
C375        C378   1.453       .  S
C376        C379   1.453       .  S
C377        N384   1.158       .  T
C378        N383   1.158       .  T
C379        N381   1.157       .  T
C380        N382   1.157       .  T
Fe385       O401   2.066       .  S
Fe385       O391   2.062       .  S
Fe385       O398   2.063       .  S
Fe385       O390   2.067       .  S
Fe385       O396   1.971       .  S
Fe386       O389   2.067       .  S
Fe386       O393   2.068       .  S
Fe386       O397   2.066       .  S
Fe386       O402   2.068       .  S
Fe386       O396   1.963       .  S
Fe387       O405   2.064       .  S
Fe387       O392   2.066       .  S
Fe387       O399   2.068       .  S
Fe387       O388   2.063       .  S
Fe387       O396   1.971       .  S
O388        C395   1.268       .  A
O389        C403   1.270       .  A
O390        C395   1.271       .  A
O391        C394   1.268       .  A
O392        C404   1.270       .  A
O393        C406   1.269       .  A
C394        O399   1.271       .  A
C394        C446   1.483       .  S
C395        C432   1.483       .  S
O397        C400   1.270       .  A
O398        C400   1.267       .  A
C400        C471   1.502       .  S
O401        C406   1.270       .  A
O402        C404   1.269       .  A
C403        O405   1.267       .  A
C403        C499   1.503       .  S
C404        C485   1.485       .  S
C406        C460   1.484       .  S
Fe407       O423   2.063       .  S
Fe407       O413   2.068       .  S
Fe407       O420   2.066       .  S
Fe407       O412   2.063       .  S
Fe407       O418   1.971       .  S
Fe408       O411   2.068       .  S
Fe408       O415   2.066       .  S
Fe408       O419   2.068       .  S
Fe408       O424   2.067       .  S
Fe408       O418   1.963       .  S
Fe409       O427   2.066       .  S
Fe409       O414   2.063       .  S
Fe409       O421   2.064       .  S
Fe409       O410   2.068       .  S
Fe409       O418   1.971       .  S
O410        C417   1.271       .  A
O411        C425   1.269       .  A
O412        C417   1.268       .  A
O413        C416   1.271       .  A
O414        C426   1.267       .  A
O415        C428   1.270       .  A
C416        O421   1.268       .  A
C416        C429   1.483       .  S
C417        C443   1.483       .  S
O419        C422   1.269       .  A
O420        C422   1.270       .  A
C422        C457   1.484       .  S
O423        C428   1.267       .  A
O424        C426   1.270       .  A
C425        O427   1.270       .  A
C425        C488   1.485       .  S
C426        C502   1.502       .  S
C428        C474   1.502       .  S
C429        C946   1.416       .  A
C430        C431   1.410       .  A
C430        C435   1.451       .  S
C431        C944   1.415       .  A
C431        C438   1.451       .  S
C432        C943   1.415   1_455  A
C433        C434   1.410       .  A
C433        C436   1.451       .  S
C434        C941   1.416   1_455  A
C434        C437   1.451       .  S
C435        N442   1.157       .  T
C436        N441   1.157       .  T
C437        N439   1.157       .  T
C438        N440   1.157       .  T
C443        C444   1.411       .  A
C443        C960   1.416       .  A
C444        C445   1.410       .  A
C444        C449   1.451       .  S
C445        C958   1.415       .  A
C445        C452   1.451       .  S
C446        C957   1.415   1_455  A
C446        C447   1.411       .  A
C447        C448   1.410       .  A
C447        C450   1.451       .  S
C448        C955   1.416   1_455  A
C448        C451   1.451       .  S
C449        N456   1.157       .  T
C450        N455   1.157       .  T
C451        N453   1.157       .  T
C452        N454   1.157       .  T
C457        C458   1.413       .  A
C457        C462   1.413       .  A
C458        C463   1.452       .  S
C459        C460   1.413       .  A
C459        C466   1.452       .  S
C460        C461   1.414   1_565  A
C461        C464   1.452       .  S
C462        C465   1.452       .  S
C463        N470   1.157       .  T
C464        N469   1.157       .  T
C465        N467   1.157       .  T
C466        N468   1.157       .  T
C471        C472   1.421       .  A
C471        C476   1.418       .  A
C472        C477   1.453       .  S
C473        C474   1.418       .  A
C473        C480   1.454       .  S
C474        C475   1.421       .  A
C475        C478   1.453       .  S
C476        C479   1.454       .  S
C477        N484   1.158       .  T
C478        N483   1.158       .  T
C479        N481   1.157       .  T
C480        N482   1.157       .  T
C485        C486   1.414       .  A
C486        C487   1.412       .  A
C486        C491   1.452       .  S
C487        C494   1.452       .  S
C488        C489   1.414       .  A
C489        C490   1.412       .  A
C489        C492   1.452       .  S
C490        C493   1.452       .  S
C491        N498   1.157       .  T
C492        N497   1.157       .  T
C493        N495   1.157       .  T
C494        N496   1.157       .  T
C499        C500   1.421       .  A
C499        C504   1.418       .  A
C500        C501   1.413       .  A
C500        C505   1.453       .  S
C501        C502   1.418       .  A
C501        C508   1.454       .  S
C502        C503   1.421       .  A
C503        C504   1.413       .  A
C503        C506   1.453       .  S
C504        C507   1.453       .  S
C505        N512   1.158       .  T
C506        N511   1.158       .  T
C507        N509   1.157       .  T
C508        N510   1.157       .  T
Fe513       O529   2.066       .  S
Fe513       O519   2.062       .  S
Fe513       O526   2.063       .  S
Fe513       O518   2.068       .  S
Fe513       O524   1.971       .  S
Fe514       O517   2.067       .  S
Fe514       O521   2.068       .  S
Fe514       O525   2.066       .  S
Fe514       O530   2.068       .  S
Fe514       O524   1.963       .  S
Fe515       O533   2.064       .  S
Fe515       O520   2.066       .  S
Fe515       O527   2.068       .  S
Fe515       O516   2.063       .  S
Fe515       O524   1.971       .  S
O516        C523   1.268       .  A
O517        C531   1.270       .  A
O518        C523   1.271       .  A
O519        C522   1.268       .  A
O520        C532   1.270       .  A
O521        C534   1.269       .  A
C522        O527   1.271       .  A
C522        C574   1.483       .  S
C523        C560   1.483       .  S
O525        C528   1.270       .  A
O526        C528   1.267       .  A
C528        C599   1.502       .  S
O529        C534   1.270       .  A
O530        C532   1.269       .  A
C531        O533   1.267       .  A
C531        C627   1.503       .  S
C532        C613   1.485       .  S
C534        C588   1.484       .  S
Fe535       O551   2.063       .  S
Fe535       O541   2.068       .  S
Fe535       O548   2.066       .  S
Fe535       O540   2.063       .  S
Fe535       O546   1.971       .  S
Fe536       O539   2.068       .  S
Fe536       O543   2.066       .  S
Fe536       O547   2.068       .  S
Fe536       O552   2.067       .  S
Fe536       O546   1.963       .  S
Fe537       O555   2.066       .  S
Fe537       O542   2.063       .  S
Fe537       O549   2.064       .  S
Fe537       O538   2.068       .  S
Fe537       O546   1.971       .  S
O538        C545   1.271       .  A
O539        C553   1.269       .  A
O540        C545   1.268       .  A
O541        C544   1.271       .  A
O542        C554   1.267       .  A
O543        C556   1.270       .  A
C544        O549   1.268       .  A
C544        C557   1.483       .  S
C545        C571   1.483       .  S
O547        C550   1.269       .  A
O548        C550   1.270       .  A
C550        C585   1.484       .  S
O551        C556   1.267       .  A
O552        C554   1.270       .  A
C553        O555   1.270       .  A
C553        C616   1.485       .  S
C554        C630   1.502       .  S
C556        C602   1.502       .  S
C557        C686   1.411   1_554  A
C558        C685   1.411       .  A
C558        C559   1.410       .  A
C558        C563   1.451       .  S
C559        C566   1.451       .  S
C560        C689   1.411       .  A
C561        C688   1.411   1_554  A
C561        C562   1.410       .  A
C561        C564   1.451       .  S
C562        C565   1.451       .  S
C563        N570   1.157       .  T
C564        N569   1.157       .  T
C565        N567   1.157       .  T
C566        N568   1.157       .  T
C571        C572   1.411       .  A
C572        C573   1.410       .  A
C572        C577   1.451       .  S
C573        C580   1.451       .  S
C574        C575   1.411       .  A
C575        C576   1.410       .  A
C575        C578   1.451       .  S
C576        C579   1.451       .  S
C577        N584   1.157       .  T
C578        N583   1.157       .  T
C579        N581   1.157       .  T
C580        N582   1.157       .  T
C585        C586   1.413   1_545  A
C585        C590   1.413       .  A
C586        C843   1.411       .  A
C586        C591   1.452       .  S
C587        C842   1.411       .  A
C587        C588   1.413       .  A
C587        C594   1.452       .  S
C588        C589   1.414       .  A
C589        C846   1.411       .  A
C589        C592   1.452       .  S
C590        C845   1.411       .  A
C590        C593   1.452       .  S
C591        N598   1.157       .  T
C592        N597   1.157       .  T
C593        N595   1.157       .  T
C594        N596   1.157       .  T
C599        C600   1.421       .  A
C599        C604   1.418       .  A
C600        C985   1.412       .  A
C600        C605   1.453       .  S
C601        C984   1.412   1_544  A
C601        C602   1.418       .  A
C601        C608   1.454       .  S
C602        C603   1.421       .  A
C603        C988   1.412   1_544  A
C603        C606   1.453       .  S
C604        C987   1.412       .  A
C604        C607   1.454       .  S
C605        N612   1.158       .  T
C606        N611   1.158       .  T
C607        N609   1.157       .  T
C608        N610   1.157       .  T
C613        C614   1.414       .  A
C613        C746   1.414       .  A
C614        C615   1.412       .  A
C614        C619   1.452       .  S
C615        C744   1.414       .  A
C615        C622   1.452       .  S
C616        C743   1.414   1_554  A
C616        C617   1.414       .  A
C617        C618   1.412       .  A
C617        C620   1.452       .  S
C618        C741   1.414   1_554  A
C618        C621   1.452       .  S
C619        N626   1.157       .  T
C620        N625   1.157       .  T
C621        N623   1.157       .  T
C622        N624   1.157       .  T
C627        C628   1.421       .  A
C627        C632   1.418       .  A
C628        C629   1.413       .  A
C628        C633   1.453       .  S
C629        C630   1.418       .  A
C629        C636   1.454       .  S
C630        C631   1.421       .  A
C631        C632   1.413       .  A
C631        C634   1.453       .  S
C632        C635   1.453       .  S
C633        N640   1.158       .  T
C634        N639   1.158       .  T
C635        N637   1.157       .  T
C636        N638   1.157       .  T
Fe641       O657   2.066       .  S
Fe641       O647   2.062       .  S
Fe641       O654   2.063       .  S
Fe641       O646   2.067       .  S
Fe641       O652   1.971       .  S
Fe642       O645   2.067       .  S
Fe642       O649   2.068       .  S
Fe642       O653   2.066       .  S
Fe642       O658   2.068       .  S
Fe642       O652   1.963       .  S
Fe643       O661   2.064       .  S
Fe643       O648   2.066       .  S
Fe643       O655   2.068       .  S
Fe643       O644   2.063       .  S
Fe643       O652   1.971       .  S
O644        C651   1.268       .  A
O645        C659   1.270       .  A
O646        C651   1.271       .  A
O647        C650   1.268       .  A
O648        C660   1.270       .  A
O649        C662   1.269       .  A
C650        O655   1.271       .  A
C650        C702   1.483       .  S
C651        C688   1.483       .  S
O653        C656   1.270       .  A
O654        C656   1.267       .  A
C656        C727   1.502       .  S
O657        C662   1.270       .  A
O658        C660   1.269       .  A
C659        O661   1.267       .  A
C659        C755   1.503       .  S
C660        C741   1.485       .  S
C662        C716   1.484       .  S
Fe663       O679   2.063       .  S
Fe663       O669   2.068       .  S
Fe663       O676   2.066       .  S
Fe663       O668   2.063       .  S
Fe663       O674   1.971       .  S
Fe664       O667   2.068       .  S
Fe664       O671   2.066       .  S
Fe664       O675   2.068       .  S
Fe664       O680   2.067       .  S
Fe664       O674   1.963       .  S
Fe665       O683   2.066       .  S
Fe665       O670   2.063       .  S
Fe665       O677   2.064       .  S
Fe665       O666   2.068       .  S
Fe665       O674   1.971       .  S
O666        C673   1.271       .  A
O667        C681   1.269       .  A
O668        C673   1.268       .  A
O669        C672   1.271       .  A
O670        C682   1.267       .  A
O671        C684   1.270       .  A
C672        O677   1.268       .  A
C672        C685   1.483       .  S
C673        C699   1.483       .  S
O675        C678   1.269       .  A
O676        C678   1.270       .  A
C678        C713   1.484       .  S
O679        C684   1.267       .  A
O680        C682   1.270       .  A
C681        O683   1.270       .  A
C681        C744   1.485       .  S
C682        C758   1.502       .  S
C684        C730   1.502       .  S
C686        C687   1.410       .  A
C686        C691   1.451       .  S
C687        C694   1.451       .  S
C689        C690   1.410       .  A
C689        C692   1.451       .  S
C690        C693   1.451       .  S
C691        N698   1.157       .  T
C692        N697   1.157       .  T
C693        N695   1.157       .  T
C694        N696   1.157       .  T
C699        C700   1.411       .  A
C700        C701   1.410       .  A
C700        C705   1.451       .  S
C701        C708   1.451       .  S
C702        C703   1.411       .  A
C703        C704   1.410       .  A
C703        C706   1.451       .  S
C704        C707   1.451       .  S
C705        N712   1.157       .  T
C706        N711   1.157       .  T
C707        N709   1.157       .  T
C708        N710   1.157       .  T
C713        C714   1.413   1_545  A
C713        C718   1.413       .  A
C714        C971   1.411       .  A
C714        C719   1.452       .  S
C715        C970   1.411       .  A
C715        C716   1.413       .  A
C715        C722   1.452       .  S
C716        C717   1.414       .  A
C717        C974   1.411       .  A
C717        C720   1.452       .  S
C718        C973   1.411       .  A
C718        C721   1.452       .  S
C719        N726   1.157       .  T
C720        N725   1.157       .  T
C721        N723   1.157       .  T
C722        N724   1.157       .  T
C727        C728   1.421       .  A
C727        C732   1.418       .  A
C728        C857   1.412   1_556  A
C728        C733   1.453       .  S
C729        C856   1.412   1_545  A
C729        C730   1.418       .  A
C729        C736   1.454       .  S
C730        C731   1.421       .  A
C731        C860   1.412   1_545  A
C731        C734   1.453       .  S
C732        C859   1.412   1_556  A
C732        C735   1.454       .  S
C733        N740   1.158       .  T
C734        N739   1.158       .  T
C735        N737   1.157       .  T
C736        N738   1.157       .  T
C741        C742   1.414       .  A
C742        C743   1.412       .  A
C742        C747   1.452       .  S
C743        C750   1.452       .  S
C744        C745   1.414       .  A
C745        C746   1.412       .  A
C745        C748   1.452       .  S
C746        C749   1.452       .  S
C747        N754   1.157       .  T
C748        N753   1.157       .  T
C749        N751   1.157       .  T
C750        N752   1.157       .  T
C755        C756   1.421       .  A
C755        C760   1.418       .  A
C756        C757   1.413       .  A
C756        C761   1.453       .  S
C757        C758   1.418       .  A
C757        C764   1.454       .  S
C758        C759   1.421       .  A
C759        C760   1.413       .  A
C759        C762   1.453       .  S
C760        C763   1.453       .  S
C761        N768   1.158       .  T
C762        N767   1.158       .  T
C763        N765   1.157       .  T
C764        N766   1.157       .  T
Fe769       O785   2.066       .  S
Fe769       O775   2.062       .  S
Fe769       O782   2.063       .  S
Fe769       O774   2.067       .  S
Fe769       O780   1.971       .  S
Fe770       O773   2.067       .  S
Fe770       O777   2.068       .  S
Fe770       O781   2.066       .  S
Fe770       O786   2.068       .  S
Fe770       O780   1.963       .  S
Fe771       O789   2.064       .  S
Fe771       O776   2.066       .  S
Fe771       O783   2.068       .  S
Fe771       O772   2.063       .  S
Fe771       O780   1.971       .  S
O772        C779   1.268       .  A
O773        C787   1.270       .  A
O774        C779   1.271       .  A
O775        C778   1.268       .  A
O776        C788   1.270       .  A
O777        C790   1.269       .  A
C778        O783   1.271       .  A
C778        C830   1.483       .  S
C779        C816   1.483       .  S
O781        C784   1.270       .  A
O782        C784   1.267       .  A
C784        C855   1.502       .  S
O785        C790   1.270       .  A
O786        C788   1.269       .  A
C787        O789   1.267       .  A
C787        C883   1.503       .  S
C788        C869   1.485       .  S
C790        C844   1.484       .  S
Fe791       O807   2.063       .  S
Fe791       O797   2.068       .  S
Fe791       O804   2.066       .  S
Fe791       O796   2.063       .  S
Fe791       O802   1.971       .  S
Fe792       O795   2.068       .  S
Fe792       O799   2.066       .  S
Fe792       O803   2.068       .  S
Fe792       O808   2.067       .  S
Fe792       O802   1.963       .  S
Fe793       O811   2.066       .  S
Fe793       O798   2.063       .  S
Fe793       O805   2.064       .  S
Fe793       O794   2.068       .  S
Fe793       O802   1.971       .  S
O794        C801   1.271       .  A
O795        C809   1.269       .  A
O796        C801   1.268       .  A
O797        C800   1.271       .  A
O798        C810   1.267       .  A
O799        C812   1.270       .  A
C800        O805   1.268       .  A
C800        C813   1.483       .  S
C801        C827   1.483       .  S
O803        C806   1.269       .  A
O804        C806   1.270       .  A
C806        C841   1.484       .  S
O807        C812   1.267       .  A
O808        C810   1.270       .  A
C809        O811   1.270       .  A
C809        C872   1.485       .  S
C810        C886   1.502       .  S
C812        C858   1.502       .  S
C813        C942   1.411   1_554  A
C814        C941   1.411       .  A
C814        C815   1.410       .  A
C814        C819   1.451       .  S
C815        C822   1.451       .  S
C816        C945   1.411       .  A
C817        C944   1.411   1_554  A
C817        C818   1.410       .  A
C817        C820   1.451       .  S
C818        C821   1.451       .  S
C819        N826   1.157       .  T
C820        N825   1.157       .  T
C821        N823   1.157       .  T
C822        N824   1.157       .  T
C827        C828   1.411       .  A
C828        C829   1.410       .  A
C828        C833   1.451       .  S
C829        C836   1.451       .  S
C830        C831   1.411       .  A
C831        C832   1.410       .  A
C831        C834   1.451       .  S
C832        C835   1.451       .  S
C833        N840   1.157       .  T
C834        N839   1.157       .  T
C835        N837   1.157       .  T
C836        N838   1.157       .  T
C841        C842   1.413       .  A
C841        C846   1.413       .  A
C842        C847   1.452       .  S
C843        C844   1.413       .  A
C843        C850   1.452       .  S
C844        C845   1.414   1_565  A
C845        C848   1.452       .  S
C846        C849   1.452       .  S
C847        N854   1.157       .  T
C848        N853   1.157       .  T
C849        N851   1.157       .  T
C850        N852   1.157       .  T
C855        C856   1.421       .  A
C855        C860   1.418       .  A
C856        C861   1.453       .  S
C857        C858   1.418       .  A
C857        C864   1.454       .  S
C858        C859   1.421       .  A
C859        C862   1.453       .  S
C860        C863   1.454       .  S
C861        N868   1.158       .  T
C862        N867   1.158       .  T
C863        N865   1.157       .  T
C864        N866   1.157       .  T
C869        C870   1.414       .  A
C869       C1002   1.414       .  A
C870        C871   1.412       .  A
C870        C875   1.452       .  S
C871       C1000   1.414       .  A
C871        C878   1.452       .  S
C872        C999   1.414   1_554  A
C872        C873   1.414       .  A
C873        C874   1.412       .  A
C873        C876   1.452       .  S
C874        C997   1.414   1_554  A
C874        C877   1.452       .  S
C875        N882   1.157       .  T
C876        N881   1.157       .  T
C877        N879   1.157       .  T
C878        N880   1.157       .  T
C883        C884   1.421       .  A
C883        C888   1.418       .  A
C884        C885   1.413       .  A
C884        C889   1.453       .  S
C885        C886   1.418       .  A
C885        C892   1.454       .  S
C886        C887   1.421       .  A
C887        C888   1.413       .  A
C887        C890   1.453       .  S
C888        C891   1.453       .  S
C889        N896   1.158       .  T
C890        N895   1.158       .  T
C891        N893   1.157       .  T
C892        N894   1.157       .  T
Fe897       O913   2.066       .  S
Fe897       O903   2.062       .  S
Fe897       O910   2.063       .  S
Fe897       O902   2.067       .  S
Fe897       O908   1.971       .  S
Fe898       O901   2.067       .  S
Fe898       O905   2.068       .  S
Fe898       O909   2.066       .  S
Fe898       O914   2.068       .  S
Fe898       O908   1.963       .  S
Fe899       O917   2.064       .  S
Fe899       O904   2.066       .  S
Fe899       O911   2.068       .  S
Fe899       O900   2.063       .  S
Fe899       O908   1.971       .  S
O900        C907   1.268       .  A
O901        C915   1.270       .  A
O902        C907   1.271       .  A
O903        C906   1.268       .  A
O904        C916   1.270       .  A
O905        C918   1.269       .  A
C906        O911   1.271       .  A
C906        C958   1.483       .  S
C907        C944   1.483       .  S
O909        C912   1.270       .  A
O910        C912   1.267       .  A
C912        C983   1.502       .  S
O913        C918   1.270       .  A
O914        C916   1.269       .  A
C915        O917   1.267       .  A
C915       C1011   1.503       .  S
C916        C997   1.485       .  S
C918        C972   1.484       .  S
Fe919       O935   2.063       .  S
Fe919       O925   2.068       .  S
Fe919       O932   2.066       .  S
Fe919       O924   2.063       .  S
Fe919       O930   1.971       .  S
Fe920       O923   2.068       .  S
Fe920       O927   2.066       .  S
Fe920       O931   2.068       .  S
Fe920       O936   2.067       .  S
Fe920       O930   1.963       .  S
Fe921       O939   2.066       .  S
Fe921       O926   2.063       .  S
Fe921       O933   2.064       .  S
Fe921       O922   2.068       .  S
Fe921       O930   1.971       .  S
O922        C929   1.271       .  A
O923        C937   1.269       .  A
O924        C929   1.268       .  A
O925        C928   1.271       .  A
O926        C938   1.267       .  A
O927        C940   1.270       .  A
C928        O933   1.268       .  A
C928        C941   1.483       .  S
C929        C955   1.483       .  S
O931        C934   1.269       .  A
O932        C934   1.270       .  A
C934        C969   1.484       .  S
O935        C940   1.267       .  A
O936        C938   1.270       .  A
C937        O939   1.270       .  A
C937       C1000   1.485       .  S
C938       C1014   1.502       .  S
C940        C986   1.502       .  S
C942        C943   1.410       .  A
C942        C947   1.451       .  S
C943        C950   1.451       .  S
C945        C946   1.410       .  A
C945        C948   1.451       .  S
C946        C949   1.451       .  S
C947        N954   1.157       .  T
C948        N953   1.157       .  T
C949        N951   1.157       .  T
C950        N952   1.157       .  T
C955        C956   1.411       .  A
C956        C957   1.410       .  A
C956        C961   1.451       .  S
C957        C964   1.451       .  S
C958        C959   1.411       .  A
C959        C960   1.410       .  A
C959        C962   1.451       .  S
C960        C963   1.451       .  S
C961        N968   1.157       .  T
C962        N967   1.157       .  T
C963        N965   1.157       .  T
C964        N966   1.157       .  T
C969        C970   1.413       .  A
C969        C974   1.413       .  A
C970        C975   1.452       .  S
C971        C972   1.413       .  A
C971        C978   1.452       .  S
C972        C973   1.414   1_565  A
C973        C976   1.452       .  S
C974        C977   1.452       .  S
C975        N982   1.157       .  T
C976        N981   1.157       .  T
C977        N979   1.157       .  T
C978        N980   1.157       .  T
C983        C984   1.421       .  A
C983        C988   1.418       .  A
C984        C989   1.453       .  S
C985        C986   1.418       .  A
C985        C992   1.454       .  S
C986        C987   1.421       .  A
C987        C990   1.453       .  S
C988        C991   1.454       .  S
C989        N996   1.158       .  T
C990        N995   1.158       .  T
C991        N993   1.157       .  T
C992        N994   1.157       .  T
C997        C998   1.414       .  A
C998        C999   1.412       .  A
C998       C1003   1.452       .  S
C999       C1006   1.452       .  S
C1000      C1001   1.414       .  A
C1001      C1002   1.412       .  A
C1001      C1004   1.452       .  S
C1002      C1005   1.452       .  S
C1003      N1010   1.157       .  T
C1004      N1009   1.157       .  T
C1005      N1007   1.157       .  T
C1006      N1008   1.157       .  T
C1011      C1012   1.421       .  A
C1011      C1016   1.418       .  A
C1012      C1013   1.413       .  A
C1012      C1017   1.453       .  S
C1013      C1014   1.418       .  A
C1013      C1020   1.454       .  S
C1014      C1015   1.421       .  A
C1015      C1016   1.413       .  A
C1015      C1018   1.453       .  S
C1016      C1019   1.453       .  S
C1017      N1024   1.158       .  T
C1018      N1023   1.158       .  T
C1019      N1021   1.157       .  T
C1020      N1022   1.157       .  T
