geometry optimzed in LAMMPS
_audit_creation_date              2020-11-30 
_audit_creation_method            'lammps2cif' 
_symmetry_space_group_name_H-M    'P1' 
_symmetry_Int_Tables_number       1 
_symmetry_cell_setting            triclinic 
loop_ 
_symmetry_equiv_pos_as_xyz 
  x,y,z 
_cell_length_a                    43.43437473 
_cell_length_b                    43.48529745326266 
_cell_length_c                    41.62989130347618 
_cell_angle_alpha                 90.00231668082628 
_cell_angle_beta                  89.960482624329 
_cell_angle_gamma                 119.64473522199064 
loop_ 
_atom_site_label 
_atom_site_type_symbol 
_atom_site_fract_x 
_atom_site_fract_y 
_atom_site_fract_z 
_atom_site_charge 
O1          O  0.11721864  0.33750087  0.33939044    -0.81500
C2          C  0.20084794  0.29940714  0.41711084     0.97800
O3          O  0.17301294  0.27907016  0.40190014    -0.70600
O4          O  0.11644028  0.28347985  0.41293699    -0.74200
Al5        Al  0.14157189  0.28614545  0.37508632     1.49000
C6          C  0.10006054  0.29980042  0.41930778     0.93100
O7          O  0.16848501  0.38387091  0.41412107    -0.80500
O8          O  0.21758437  0.38224345  0.33739644    -0.74000
Al9        Al  0.14441007  0.35895731  0.37665125     1.90100
O10         O  0.22142748  0.39315279  0.40243277    -0.73100
O11         O  0.21748668  0.32290244  0.34628045    -0.72900
O12         O  0.21735589  0.33204063  0.41115610    -0.78600
O13         O  0.16299331  0.28164747  0.33727189    -0.76800
O14         O  0.16669445  0.33353475  0.37534604    -1.12900
O15         O  0.10478162  0.28304336  0.34814967    -0.72100
C16         C  0.09922477  0.30497694  0.33307744     0.98600
C17         C  0.20137380  0.39994837  0.41921449     0.95000
Al18       Al  0.21413476  0.35557710  0.37437611     1.55600
O19         O  0.10682478  0.32757072  0.40421461    -0.76800
C20         C  0.19550659  0.29589375  0.33101283     0.99200
C21         C  0.20335996  0.40101194  0.33285062     0.94000
O22         O  0.17693626  0.39610861  0.34932610    -0.82100
O23         O  0.33613104  0.11806742  0.16369521    -0.81500
C24         C  0.30043940  0.20067097  0.08196114     0.97800
O25         O  0.27975314  0.17295447  0.09713181    -0.70600
O26         O  0.28507631  0.11646747  0.08684395    -0.74200
Al27       Al  0.28611528  0.14141452  0.12440945     1.49000
C28         C  0.30099311  0.09923437  0.08252622     0.93100
O29         O  0.38474903  0.16723742  0.08893472    -0.80500
O30         O  0.38145380  0.21825115  0.16358348    -0.74000
Al31       Al  0.35878130  0.14418742  0.12625892     1.90100
O32         O  0.39416049  0.22060291  0.09899360    -0.73100
O33         O  0.32178183  0.21738139  0.15236004    -0.72900
O34         O  0.33312248  0.21665468  0.08785718    -0.78600
O35         O  0.28049437  0.16283877  0.16169195    -0.76800
O36         O  0.33351241  0.16654791  0.12548300    -1.12900
O37         O  0.28189266  0.10433824  0.15164376    -0.72100
C38         C  0.30325554  0.09925529  0.16821732     0.98600
C39         C  0.40142009  0.20003393  0.08354651     0.95000
Al40       Al  0.35560305  0.21392133  0.12570001     1.55600
O41         O  0.32793602  0.10592483  0.09902593    -0.76800
C42         C  0.29429287  0.19545351  0.16724086     0.99200
C43         C  0.40056268  0.20453561  0.16890503     0.94000
O44         O  0.39538950  0.17737084  0.15359282    -0.82100
C45         C  0.01196023  0.27100652  0.46127819    -0.05200
C46         C  0.01653040  0.25703813  0.49033433     0.09000
C47         C  0.04848640  0.25698182  0.99607689    -0.02600
C48         C  0.07614341  0.27151292  0.47323384    -0.00800
C49         C  0.07162370  0.28556113  0.44406447    -0.04500
C50         C  0.03920076  0.28491876  0.43811800     0.02600
C51         C  0.48726270  0.24201595  0.01464310     0.09400
C52         C  0.05285733  0.24176832  0.02556102     0.35300
C53         C  0.03303004  0.29702448  0.40754358     0.38700
C54         C  0.45640381  0.20930153  0.00888682    -0.04800
C55         C  0.42795369  0.19605649  0.03084511     0.02300
C56         C  0.43067549  0.21480810  0.05949391    -0.04400
C57         C  0.46203674  0.24735204  0.06548242    -0.00700
C58         C  0.48995083  0.26102746  0.04294232    -0.03200
C59         C  0.45405010  0.18922281  0.48026534     0.36000
C60         C  0.46630915  0.26649471  0.09524213     0.39700
C61         C  0.39543275  0.16374582  0.02321511     0.38800
C62         C  0.02152597  0.29481265  0.04876065     0.35700
C63         C  0.47893458  0.27078994  0.45508779     0.36400
C64         C  0.10932914  0.27234102  0.48001780     0.39600
N65         N  0.36944300  0.13805751  0.01709941    -0.38400
N66         N  0.45224587  0.17327457  0.45740650    -0.40000
N67         N  0.46972651  0.28176160  0.11895305    -0.37800
N68         N  0.04681223  0.32165755  0.05348659    -0.40100
N69         N  0.05631944  0.22966235  0.04910895    -0.39900
N70         N  0.13577550  0.27294335  0.48534440    -0.37500
N71         N  0.02808623  0.30656406  0.38312891    -0.38600
N72         N  0.45244999  0.27024040  0.45014039    -0.40300
C73         C  0.04566652  0.30124075  0.25853441    -0.05200
C74         C  0.01636623  0.26684510  0.26104212     0.09000
C75         C  0.01424279  0.24488464  0.28675443    -0.02600
C76         C  0.04073766  0.25748607  0.31055452    -0.00800
C77         C  0.07071463  0.29198226  0.30811007    -0.04500
C78         C  0.07301783  0.31368034  0.28165389     0.02600
C79         C  0.48763111  0.25309245  0.23636000     0.09400
C80         C  0.98471456  0.20894117  0.28841876     0.35300
C81         C  0.10387831  0.34844272  0.27739475     0.38700
C82         C  0.49025183  0.23542049  0.20907116    -0.04800
C83         C  0.46223276  0.22027633  0.18675689     0.02300
C84         C  0.43042010  0.22120660  0.19237901    -0.04400
C85         C  0.42799758  0.23905093  0.21997550    -0.00700
C86         C  0.45682290  0.25552387  0.24144146    -0.03200
C87         C  0.02172852  0.23231394  0.20430724     0.36000
C88         C  0.39550631  0.23948296  0.22716829     0.39700
C89         C  0.46697799  0.20483232  0.15754841     0.38800
C90         C  0.45483185  0.27484438  0.26903701     0.35700
C91         C  0.04771165  0.32368328  0.23189817     0.36400
C92         C  0.03612876  0.23493728  0.33795417     0.39600
N93         N  0.47084727  0.19264964  0.13421817    -0.38400
N94         N  0.04677885  0.22974324  0.20068460    -0.40000
N95         N  0.36957649  0.23975067  0.23299079    -0.37800
N96         N  0.45348124  0.29048986  0.29097064    -0.40100
N97         N  0.96126421  0.18024646  0.28945083    -0.39900
N98         N  0.03233274  0.21687979  0.35976728    -0.37500
N99         N  0.12847449  0.37615039  0.27396776    -0.38600
N100        N  0.04931551  0.34159843  0.21066224    -0.40300
C101        C  0.29613583  0.04462238  0.24282612    -0.05200
C102        C  0.26256148  0.01448026  0.23836579     0.09000
C103        C  0.24234530  0.01203520  0.21106411    -0.02600
C104        C  0.25577681  0.03929019  0.18795325    -0.00800
C105        C  0.28925076  0.07017214  0.19259015    -0.04500
C106        C  0.30921365  0.07264166  0.22041941     0.02600
C107        C  0.24791836  0.48540784  0.26278962     0.09400
C108        C  0.20736527  0.48132783  0.20687193     0.35300
C109        C  0.34277930  0.10434526  0.22679460     0.38700
C110        C  0.23450307  0.49015996  0.29208190    -0.04800
C111        C  0.22041257  0.46283198  0.31511685     0.02300
C112        C  0.21839749  0.42988942  0.30851341    -0.04400
C113        C  0.23147490  0.42507831  0.27885520    -0.00700
C114        C  0.24671445  0.45297015  0.25637002    -0.03200
C115        C  0.23510378  0.52328184  0.29839978     0.36000
C116        C  0.22828436  0.39112120  0.27087316     0.39700
C117        C  0.20925316  0.46933823  0.34605826     0.38000
C118        C  0.26132701  0.94846777  0.22656842     0.35700
C119        C  0.31721965  0.04671707  0.27062614     0.36400
C120        C  0.23524600  0.03462116  0.15902386     0.39600
N121        N  0.20046409  0.47457374  0.37074981    -0.38400
N122        N  0.23565270  0.54974373  0.30332322    -0.40000
N123        N  0.22563699  0.36399963  0.26451261    -0.37800
N124        N  0.27298865  0.94492476  0.20276009    -0.40100
N125        N  0.17954147  0.45685670  0.20364058    -0.39900
N126        N  0.21881779  0.03080421  0.13598294    -0.37500
N127        N  0.36951422  0.12962437  0.23190209    -0.38600
N128        N  0.33398289  0.04831668  0.29282230    -0.40300
C129        C  0.27244496  0.00937650  0.04421608    -0.05200
C130        C  0.25877089  0.01274881  0.01455893     0.09000
C131        C  0.25948266  0.04470617  0.00685607    -0.02600
C132        C  0.27354795  0.07313367  0.02882334    -0.00800
C133        C  0.28715635  0.06981539  0.05873281    -0.04500
C134        C  0.28653349  0.03768782  0.06626108     0.02600
C135        C  0.24454430  0.48292449  0.49091952     0.09400
C136        C  0.24588599  0.04835981  0.47610332     0.35300
C137        C  0.29934353  0.03307422  0.09709464     0.38700
C138        C  0.21072037  0.45309483  0.49532465    -0.04800
C139        C  0.19720043  0.42531897  0.47267328     0.02300
C140        C  0.21687496  0.42783059  0.44461570    -0.04400
C141        C  0.25127483  0.45760422  0.44076810    -0.00700
C142        C  0.26513815  0.48459727  0.46412595    -0.03200
C143        C  0.18977397  0.45106563  0.02326490     0.36000
C144        C  0.27241484  0.46138211  0.41246006     0.39700
C145        C  0.16359910  0.39364843  0.47904512     0.38800
C146        C  0.30078340  0.01431352  0.46072944     0.35700
C147        C  0.27206243  0.47666530  0.05194354     0.36400
C148        C  0.27480795  0.10607269  0.02014533     0.39600
N149        N  0.13691627  0.36829120  0.48417686    -0.38400
N150        N  0.17311294  0.44939410  0.04558070    -0.40000
N151        N  0.28940287  0.46446449  0.38997774    -0.37800
N152        N  0.32924359  0.03798538  0.45823484    -0.40100
N153        N  0.23521496  0.05123274  0.45148071    -0.39900
N154        N  0.27577845  0.13233642  0.01327919    -0.37500
N155        N  0.30962677  0.02938665  0.12162426    -0.38600
N156        N  0.27159797  0.45047469  0.05805711    -0.40300
C157        C  0.29063564  0.24429636  0.50609021    -0.05200
C158        C  0.25793092  0.24281343  0.01180217     0.09000
C159        C  0.23912088  0.22749624  0.04034331    -0.02600
C160        C  0.25305343  0.21392686  0.06332924    -0.00800
C161        C  0.28581729  0.21505165  0.05762465    -0.04500
C162        C  0.30458835  0.23046329  0.02885267     0.02600
C163        C  0.24307582  0.25731450  0.48764855     0.09400
C164        C  0.20521333  0.22558931  0.04590443     0.35300
C165        C  0.33794688  0.23157387  0.02221838     0.38700
C166        C  0.22548042  0.23720207  0.46031835    -0.04800
C167        C  0.21178466  0.25089175  0.43720360     0.02300
C168        C  0.21471629  0.28458582  0.44178519    -0.04400
C169        C  0.23164282  0.30426616  0.46978197    -0.00700
C170        C  0.24621700  0.29085625  0.49231752    -0.03200
C171        C  0.22151713  0.20228787  0.45607990     0.36000
C172        C  0.23321217  0.33785358  0.47611506     0.39700
C173        C  0.19580444  0.23056758  0.40826828     0.38800
C174        C  0.26461461  0.31160271  0.52038178     0.35700
C175        C  0.30972219  0.25979728  0.47650334     0.36400
C176        C  0.23409493  0.20010147  0.09333497     0.39600
N177        N  0.18307446  0.21433644  0.38520910    -0.38400
N178        N  0.21839477  0.17445474  0.45283771    -0.40000
N179        N  0.23440245  0.36458823  0.48120194    -0.37800
N180        N  0.27933411  0.32813809  0.54275655    -0.40100
N181        N  0.17818561  0.22410090  0.05021907    -0.39900
N182        N  0.21895244  0.18917656  0.11725903    -0.37500
N183        N  0.36464974  0.23265896  0.51705659    -0.38600
N184        N  0.32479710  0.27202404  0.45280484    -0.40300
C185        C  0.19944133  0.24729266  0.25600038    -0.05200
C186        C  0.23280437  0.24968734  0.25972129     0.09000
C187        C  0.25404463  0.26742637  0.28645636    -0.02600
C188        C  0.24143859  0.28151034  0.31017248    -0.00800
C189        C  0.20836970  0.28022921  0.30616317    -0.04500
C190        C  0.18761508  0.26332949  0.27862452     0.02600
C191        C  0.24635781  0.23440574  0.23506678     0.09400
C192        C  0.28924534  0.27163102  0.28921306     0.35300
C193        C  0.15466880  0.26333664  0.27281259     0.38700
C194        C  0.26213327  0.25352527  0.20679312    -0.04800
C195        C  0.27714967  0.24047098  0.18440769     0.02300
C196        C  0.27745895  0.20853497  0.19063367    -0.04400
C197        C  0.26106725  0.18913680  0.21892361    -0.00700
C198        C  0.24524346  0.20191971  0.24083111    -0.03200
C199        C  0.26329977  0.28700212  0.20100996     0.36000
C200        C  0.26141506  0.15666523  0.22622701     0.39700
C201        C  0.29128606  0.25963539  0.15454515     0.38800
C202        C  0.22795880  0.18182682  0.26954494     0.35700
C203        C  0.17734931  0.22830697  0.22877124     0.36400
C204        C  0.26210095  0.29588972  0.33926611     0.39600
N205        N  0.30246204  0.27487083  0.13072249    -0.38400
N206        N  0.26422548  0.31370776  0.19648308    -0.40000
N207        N  0.26168367  0.13076595  0.23206142    -0.37800
N208        N  0.21407111  0.16583632  0.29242552    -0.40100
N209        N  0.31741871  0.27520812  0.29112305    -0.39900
N210        N  0.27847084  0.30711859  0.36252850    -0.37500
N211        N  0.12847471  0.26348942  0.26810755    -0.38600
N212        N  0.15971366  0.21301916  0.20711242    -0.40300
O213        O  0.11723921  0.33755513  0.83939333    -0.81500
C214        C  0.20084573  0.29940068  0.91708353     0.97800
O215        O  0.17302457  0.27906903  0.90184991    -0.70600
O216        O  0.11644183  0.28346870  0.91290751    -0.74200
Al217      Al  0.14157860  0.28616617  0.87505178     1.49000
C218        C  0.10005174  0.29977755  0.91928589     0.93100
O219        O  0.16848466  0.38385763  0.91415417    -0.80500
O220        O  0.21759226  0.38226945  0.83740778    -0.74000
Al221      Al  0.14442133  0.35897863  0.87666839     1.90100
O222        O  0.22143076  0.39316532  0.90244554    -0.73100
O223        O  0.21749758  0.32292643  0.84628102    -0.72900
O224        O  0.21734367  0.33204148  0.91115790    -0.78600
O225        O  0.16300292  0.28170354  0.83722482    -0.76800
O226        O  0.16670107  0.33355436  0.87534234    -1.12900
O227        O  0.10478521  0.28308614  0.84812951    -0.72100
C228        C  0.09923204  0.30503318  0.83307554     0.98600
C229        C  0.20137487  0.39994704  0.91923900     0.95000
Al230      Al  0.21413919  0.35559403  0.87438185     1.55600
O231        O  0.10682639  0.32756401  0.90421347    -0.76800
C232        C  0.19552047  0.29593690  0.83098932     0.99200
C233        C  0.20338126  0.40105368  0.83288044     0.94000
O234        O  0.17696445  0.39615730  0.84936543    -0.82100
O235        O  0.33611368  0.11806249  0.66370398    -0.81500
C236        C  0.30046221  0.20070232  0.58197753     0.97800
O237        O  0.27977149  0.17298443  0.59714354    -0.70600
O238        O  0.28509375  0.11649766  0.58683712    -0.74200
Al239      Al  0.28612433  0.14143121  0.62441012     1.49000
C240        C  0.30100488  0.09925807  0.58252312     0.93100
O241        O  0.38477238  0.16724470  0.58896489    -0.80500
O242        O  0.38146518  0.21826266  0.66359303    -0.74000
Al243      Al  0.35878288  0.14419038  0.62627732     1.90100
O244        O  0.39417267  0.22060860  0.59900523    -0.73100
O245        O  0.32179658  0.21739035  0.65237213    -0.72900
O246        O  0.33314507  0.21667368  0.58786931    -0.78600
O247        O  0.28050259  0.16284802  0.66169770    -0.76800
O248        O  0.33352189  0.16655851  0.62549306    -1.12900
O249        O  0.28188352  0.10433727  0.65163351    -0.72100
C250        C  0.30323671  0.09924572  0.66821329     0.98600
C251        C  0.40143930  0.20003919  0.58356753     0.95000
Al252      Al  0.35561772  0.21393217  0.62571132     1.55600
O253        O  0.32794094  0.10593800  0.59903029    -0.76800
C254        C  0.29430523  0.19546278  0.66725094     0.99200
C255        C  0.40056556  0.20454087  0.66892404     0.94000
O256        O  0.39538196  0.17736517  0.65362439    -0.82100
C257        C  0.01195794  0.27105827  0.96125139    -0.05200
C258        C  0.01647701  0.25700692  0.99027601     0.09000
C259        C  0.04859411  0.25712856  0.49616282    -0.02600
C260        C  0.07604335  0.27134540  0.97315412    -0.00800
C261        C  0.07159019  0.28550841  0.94402387    -0.04500
C262        C  0.03920623  0.28495838  0.93809796     0.02600
C263        C  0.48725264  0.24205211  0.51463075     0.09400
C264        C  0.05303316  0.24201386  0.52568031     0.35300
C265        C  0.03307426  0.29713498  0.90754528     0.38700
C266        C  0.45641920  0.20931272  0.50889664    -0.04800
C267        C  0.42799160  0.19603474  0.53088099     0.02300
C268        C  0.43069214  0.21481220  0.55950953    -0.04400
C269        C  0.46202786  0.24739071  0.56546804    -0.00700
C270        C  0.48993340  0.26107407  0.54291913    -0.03200
C271        C  0.45402967  0.18920213  0.98026095     0.36000
C272        C  0.46628972  0.26655749  0.59521075     0.39700
C273        C  0.39552527  0.16364448  0.52330812     0.38800
C274        C  0.02159829  0.29477870  0.54887934     0.35700
C275        C  0.47888435  0.27063192  0.95504821     0.36400
C276        C  0.10915913  0.27201256  0.97990108     0.39600
N277        N  0.36958497  0.13788366  0.51724269    -0.38400
N278        N  0.45222061  0.17324326  0.95740832    -0.40000
N279        N  0.46969831  0.28184342  0.61890814    -0.37800
N280        N  0.04689385  0.32160724  0.55363372    -0.40100
N281        N  0.05655501  0.22999232  0.54925597    -0.39900
N282        N  0.13554413  0.27247488  0.98519703    -0.37500
N283        N  0.02816030  0.30672700  0.88314580    -0.38600
N284        N  0.45237350  0.27001965  0.95007908    -0.40300
C285        C  0.04569226  0.30127261  0.75851255    -0.05200
C286        C  0.01635337  0.26690363  0.76106369     0.09000
C287        C  0.01418651  0.24498395  0.78682909    -0.02600
C288        C  0.04068185  0.25759720  0.81062881    -0.00800
C289        C  0.07070677  0.29205238  0.80812667    -0.04500
C290        C  0.07304493  0.31371714  0.78163211     0.02600
C291        C  0.48765021  0.25311356  0.73635780     0.09400
C292        C  0.98461525  0.20906869  0.78854789     0.35300
C293        C  0.10393926  0.34844902  0.77734038     0.38700
C294        C  0.49025445  0.23541599  0.70908138    -0.04800
C295        C  0.46223182  0.22027137  0.68677182     0.02300
C296        C  0.43042916  0.22122155  0.69239018    -0.04400
C297        C  0.42802826  0.23910353  0.71996870    -0.00700
C298        C  0.45685906  0.25557791  0.74142854    -0.03200
C299        C  0.02179253  0.23249000  0.70427417     0.36000
C300        C  0.39555739  0.23958184  0.72714665     0.39700
C301        C  0.46696634  0.20481319  0.65756783     0.38800
C302        C  0.45489124  0.27493330  0.76900693     0.35700
C303        C  0.04777324  0.32368332  0.73183548     0.36400
C304        C  0.03602303  0.23511475  0.83809494     0.39600
N305        N  0.47082699  0.19262099  0.63423998    -0.38400
N306        N  0.04687611  0.22998299  0.70062822    -0.40000
N307        N  0.36964554  0.23989023  0.73295716    -0.37800
N308        N  0.45356004  0.29060740  0.79092606    -0.40100
N309        N  0.96112919  0.18039580  0.78962434    -0.39900
N310        N  0.03218736  0.21711522  0.85996488    -0.37500
N311        N  0.12856199  0.37613339  0.77388979    -0.38600
N312        N  0.04940628  0.34157361  0.71056684    -0.40300
C313        C  0.29612625  0.04454503  0.74277399    -0.05200
C314        C  0.26251937  0.01444065  0.73834139     0.09000
C315        C  0.24227869  0.01203815  0.71107144    -0.02600
C316        C  0.25571741  0.03929805  0.68796385    -0.00800
C317        C  0.28922199  0.07015056  0.69257910    -0.04500
C318        C  0.30920941  0.07257538  0.72037881     0.02600
C319        C  0.24796708  0.48546592  0.76283574     0.09400
C320        C  0.20739106  0.48138816  0.70693339     0.35300
C321        C  0.34281161  0.10424232  0.72673696     0.38700
C322        C  0.23461245  0.49023980  0.79215553    -0.04800
C323        C  0.22051747  0.46290720  0.81518729     0.02300
C324        C  0.21842754  0.42993838  0.80855135    -0.04400
C325        C  0.23143998  0.42510433  0.77886696    -0.00700
C326        C  0.24669457  0.45300084  0.75638770    -0.03200
C327        C  0.23527291  0.52338493  0.79850285     0.36000
C328        C  0.22815877  0.39111697  0.77085131     0.39700
C329        C  0.20942984  0.46943120  0.84615721     0.38000
C330        C  0.26114141  0.94836601  0.72649077     0.35700
C331        C  0.31724046  0.04658779  0.77053322     0.36400
C332        C  0.23516113  0.03465952  0.65905843     0.39600
N333        N  0.20070015  0.47468166  0.87087210    -0.38400
N334        N  0.23586831  0.54986501  0.80344965    -0.40000
N335        N  0.22543562  0.36397017  0.76446335    -0.37800
N336        N  0.27274269  0.94479490  0.70265751    -0.40100
N337        N  0.17956044  0.45692385  0.70371337    -0.39900
N338        N  0.21871263  0.03086429  0.63603585    -0.37500
N339        N  0.36957626  0.12949140  0.73183136    -0.38600
N340        N  0.33402860  0.04814463  0.79269571    -0.40300
C341        C  0.27241360  0.00938495  0.54422688    -0.05200
C342        C  0.25874870  0.01276097  0.51456506     0.09000
C343        C  0.25947873  0.04472669  0.50685709    -0.02600
C344        C  0.27356854  0.07316291  0.52881585    -0.00800
C345        C  0.28716311  0.06983813  0.55873027    -0.04500
C346        C  0.28651194  0.03769966  0.56626860     0.02600
C347        C  0.24452322  0.48294648  0.99091929     0.09400
C348        C  0.24590139  0.04834126  0.97609675     0.35300
C349        C  0.29930492  0.03308011  0.59710905     0.38700
C350        C  0.21070540  0.45311184  0.99533120    -0.04800
C351        C  0.19719490  0.42532615  0.97269070     0.02300
C352        C  0.21687342  0.42783302  0.94463689    -0.04400
C353        C  0.25126797  0.45761413  0.94078271    -0.00700
C354        C  0.26511887  0.48462117  0.96412709    -0.03200
C355        C  0.18979325  0.45103987  0.52326439     0.36000
C356        C  0.27241716  0.46138394  0.91248355     0.39700
C357        C  0.16360012  0.39365097  0.97907104     0.38800
C358        C  0.30082459  0.01425164  0.96075976     0.35700
C359        C  0.27204527  0.47663638  0.55196624     0.36400
C360        C  0.27487518  0.10611971  0.52012204     0.39600
N361        N  0.13692292  0.36828987  0.98420987    -0.38400
N362        N  0.17313459  0.44935718  0.54558556    -0.40000
N363        N  0.28941416  0.46446004  0.89000954    -0.37800
N364        N  0.32930088  0.03789911  0.95828108    -0.40100
N365        N  0.23524267  0.05121679  0.95146849    -0.39900
N366        N  0.27588679  0.13239917  0.51324193    -0.37500
N367        N  0.30957473  0.02938898  0.62164448    -0.38600
N368        N  0.27156835  0.45044133  0.55808719    -0.40300
C369        C  0.29061665  0.24424646  0.00605721    -0.05200
C370        C  0.25794728  0.24285457  0.51184037     0.09000
C371        C  0.23914381  0.22753967  0.54038404    -0.02600
C372        C  0.25308548  0.21397868  0.56336810    -0.00800
C373        C  0.28584536  0.21509875  0.55765302    -0.04500
C374        C  0.30461443  0.23051712  0.52888164     0.02600
C375        C  0.24306835  0.25728390  0.98760861     0.09400
C376        C  0.20523175  0.22562204  0.54594739     0.35300
C377        C  0.33798011  0.23164365  0.52224536     0.38700
C378        C  0.22550976  0.23719641  0.96025490    -0.04800
C379        C  0.21182003  0.25089557  0.93714200     0.02300
C380        C  0.21471082  0.28456821  0.94175196    -0.04400
C381        C  0.23159625  0.30422061  0.96977242    -0.00700
C382        C  0.24617448  0.29080813  0.99230191    -0.03200
C383        C  0.22157495  0.20229673  0.95599208     0.36000
C384        C  0.23311533  0.33777942  0.97613643     0.39700
C385        C  0.19588989  0.23060594  0.90817957     0.38800
C386        C  0.26454031  0.31153486  0.02038516     0.35700
C387        C  0.30971089  0.25974635  0.97647345     0.36400
C388        C  0.23414427  0.20017259  0.59338453     0.39600
N389        N  0.18320204  0.21440263  0.88509807    -0.38400
N390        N  0.21847531  0.17447480  0.95273192    -0.40000
N391        N  0.23426366  0.36449039  0.98124790    -0.37800
N392        N  0.27923469  0.32805519  0.04277465    -0.40100
N393        N  0.17819882  0.22412183  0.55026267    -0.39900
N394        N  0.21901688  0.18926594  0.61731815    -0.37500
N395        N  0.36460970  0.23257402  0.01703090    -0.38600
N396        N  0.32479293  0.27197174  0.95277762    -0.40300
C397        C  0.19947081  0.24732885  0.75598987    -0.05200
C398        C  0.23282253  0.24970302  0.75973107     0.09000
C399        C  0.25405473  0.26743828  0.78647091    -0.02600
C400        C  0.24144927  0.28153606  0.81017420    -0.00800
C401        C  0.20839054  0.28027285  0.80614602    -0.04500
C402        C  0.18764769  0.26338190  0.77859928     0.02600
C403        C  0.24638144  0.23442295  0.73508142     0.09400
C404        C  0.28924861  0.27162899  0.78924383     0.35300
C405        C  0.15472015  0.26341857  0.77276160     0.38700
C406        C  0.26218223  0.25355622  0.70682055    -0.04800
C407        C  0.27719869  0.24050240  0.68443563     0.02300
C408        C  0.27747446  0.20854633  0.69064588    -0.04400
C409        C  0.26105386  0.18913274  0.71892231    -0.00700
C410        C  0.24524036  0.20192271  0.74083415    -0.03200
C411        C  0.26337232  0.28704631  0.70104964     0.36000
C412        C  0.26135505  0.15663360  0.72620576     0.39700
C413        C  0.29136913  0.25968997  0.65458915     0.38800
C414        C  0.22793987  0.18182289  0.76954060     0.35700
C415        C  0.17738946  0.22835108  0.72875263     0.36400
C416        C  0.26210354  0.29591486  0.83927211     0.39600
N417        N  0.30257311  0.27494526  0.63077995    -0.38400
N418        N  0.26431500  0.31376151  0.69653342    -0.40000
N419        N  0.26158357  0.13071070  0.73202306    -0.37800
N420        N  0.21404167  0.16582717  0.79241599    -0.40100
N421        N  0.31741741  0.27519682  0.79116716    -0.39900
N422        N  0.27846729  0.30714471  0.86253748    -0.37500
N423        N  0.12854211  0.26359626  0.76803478    -0.38600
N424        N  0.15976304  0.21306942  0.70708709    -0.40300
O425        O  0.11724005  0.83753245  0.33938515    -0.81500
C426        C  0.20085678  0.79940199  0.41708641     0.97800
O427        O  0.17302946  0.77906794  0.40186292    -0.70600
O428        O  0.11644996  0.78347505  0.41291787    -0.74200
Al429      Al  0.14158307  0.78615847  0.37506277     1.49000
C430        C  0.10006192  0.79978763  0.41929014     0.93100
O431        O  0.16848919  0.88386363  0.41413572    -0.80500
O432        O  0.21760150  0.88226440  0.33740381    -0.74000
Al433      Al  0.14442385  0.85896990  0.37665561     1.90100
O434        O  0.22143599  0.89316147  0.40244153    -0.73100
O435        O  0.21749938  0.82291760  0.34627727    -0.72900
O436        O  0.21735494  0.83204092  0.41115461    -0.78600
O437        O  0.16300409  0.78168292  0.33724011    -0.76800
O438        O  0.16670609  0.83354744  0.37534057    -1.12900
O439        O  0.10478853  0.78306849  0.34813756    -0.72100
C440        C  0.09923486  0.80500902  0.33307332     0.98600
C441        C  0.20137827  0.89994852  0.41922700     0.95000
Al442      Al  0.21414524  0.85558872  0.37437828     1.55600
O443        O  0.10683264  0.82756638  0.40420701    -0.76800
C444        C  0.19551983  0.79592018  0.33099538     0.99200
C445        C  0.20338504  0.90104194  0.33286809     0.94000
O446        O  0.17696059  0.89613680  0.34934466    -0.82100
O447        O  0.33611021  0.61805750  0.16370729    -0.81500
C448        C  0.30044392  0.70068628  0.08198034     0.97800
O449        O  0.27975830  0.67297168  0.09715208    -0.70600
O450        O  0.28508770  0.61649025  0.08684174    -0.74200
Al451      Al  0.28611951  0.64142194  0.12441433     1.49000
C452        C  0.30100110  0.59925302  0.08252640     0.93100
O453        O  0.38476882  0.66723052  0.08896666    -0.80500
O454        O  0.38147077  0.71826562  0.16357779    -0.74000
Al455      Al  0.35877811  0.64418187  0.12627922     1.90100
O456        O  0.39415886  0.72059413  0.09898488    -0.73100
O457        O  0.32179478  0.71738355  0.15236887    -0.72900
O458        O  0.33312868  0.71665675  0.08786256    -0.78600
O459        O  0.28050542  0.66283998  0.16170322    -0.76800
O460        O  0.33351740  0.66655024  0.12549164    -1.12900
O461        O  0.28187970  0.60432718  0.15163342    -0.72100
C462        C  0.30323344  0.59923737  0.16821304     0.98600
C463        C  0.40142764  0.70002177  0.08355439     0.95000
Al464      Al  0.35561173  0.71392371  0.12570087     1.55600
O465        O  0.32793668  0.60593206  0.09903361    -0.76800
C466        C  0.29430728  0.69545544  0.16725300     0.99200
C467        C  0.40056270  0.70453624  0.16891671     0.94000
O468        O  0.39537358  0.67735529  0.15362423    -0.82100
C469        C  0.01197524  0.77107277  0.46126679    -0.05200
C470        C  0.01650776  0.75704275  0.49029911     0.09000
C471        C  0.04854629  0.75708005  0.99612408    -0.02600
C472        C  0.07607807  0.77139750  0.47317541    -0.00800
C473        C  0.07160917  0.78553334  0.44403576    -0.04500
C474        C  0.03921988  0.78497214  0.43810980     0.02600
C475        C  0.48722402  0.74200782  0.01459640     0.09400
C476        C  0.05296876  0.74195244  0.02564064     0.35300
C477        C  0.03308085  0.79714072  0.40755574     0.38700
C478        C  0.45640080  0.70925414  0.00888485    -0.04800
C479        C  0.42798077  0.69598001  0.03087803     0.02300
C480        C  0.43067311  0.71478650  0.05948654    -0.04400
C481        C  0.46199590  0.74738638  0.06541648    -0.00700
C482        C  0.48989845  0.76105625  0.04286447    -0.03200
C483        C  0.45408618  0.68919639  0.48030249     0.36000
C484        C  0.46624838  0.76659181  0.09513301     0.39700
C485        C  0.39553193  0.66355928  0.02333523     0.38800
C486        C  0.02154531  0.79480596  0.04879581     0.35700
C487        C  0.47887480  0.77058542  0.45504618     0.36400
C488        C  0.10920492  0.77208927  0.47992605     0.39600
N489        N  0.36960706  0.63777225  0.01729433    -0.38400
N490        N  0.45229147  0.67322662  0.45746188    -0.40000
N491        N  0.46964806  0.78190959  0.11880873    -0.37800
N492        N  0.04683148  0.82164891  0.05352861    -0.40100
N493        N  0.05647644  0.72991959  0.04921533    -0.39900
N494        N  0.13559945  0.77257267  0.48522505    -0.37500
N495        N  0.02816217  0.80672898  0.38315623    -0.38600
N496        N  0.45234970  0.76993962  0.45006690    -0.40300
C497        C  0.04567338  0.80125591  0.25852752    -0.05200
C498        C  0.01635434  0.76687354  0.26106039     0.09000
C499        C  0.01421151  0.74493673  0.28680126    -0.02600
C500        C  0.04071022  0.75754613  0.31059789    -0.00800
C501        C  0.07071251  0.79202053  0.30811933    -0.04500
C502        C  0.07302915  0.81369981  0.28164351     0.02600
C503        C  0.48763548  0.75308375  0.23636063     0.09400
C504        C  0.98465998  0.70900872  0.28849867     0.35300
C505        C  0.10390593  0.84844656  0.27736399     0.38700
C506        C  0.49023776  0.73538360  0.20908543    -0.04800
C507        C  0.46222008  0.72025019  0.18677123     0.02300
C508        C  0.43042269  0.72121132  0.19238525    -0.04400
C509        C  0.42802178  0.73909264  0.21996400    -0.00700
C510        C  0.45684998  0.75555931  0.24142733    -0.03200
C511        C  0.02176544  0.73241257  0.20429493     0.36000
C512        C  0.39555266  0.73957556  0.22713907     0.39700
C513        C  0.46695382  0.70479076  0.15756758     0.38800
C514        C  0.45488515  0.77491804  0.26900431     0.35700
C515        C  0.04773104  0.82368126  0.23187170     0.36400
C516        C  0.03607877  0.73503391  0.33803297     0.39600
N517        N  0.47081288  0.69259634  0.13424051    -0.38400
N518        N  0.04683586  0.72987976  0.20066054    -0.40000
N519        N  0.36964154  0.73988631  0.23294749    -0.37800
N520        N  0.45355632  0.79059572  0.29092159    -0.40100
N521        N  0.96118990  0.68032619  0.28955805    -0.39900
N522        N  0.03226500  0.71700814  0.35987624    -0.37500
N523        N  0.12851491  0.87614228  0.27392188    -0.38600
N524        N  0.04934454  0.84158296  0.21062036    -0.40300
C525        C  0.29610734  0.54454450  0.24277997    -0.05200
C526        C  0.26252100  0.51441999  0.23832179     0.09000
C527        C  0.24229888  0.51200111  0.21103319    -0.02600
C528        C  0.25573370  0.53926992  0.18793499    -0.00800
C529        C  0.28921967  0.57013867  0.19257255    -0.04500
C530        C  0.30919015  0.57257718  0.22038795     0.02600
C531        C  0.24796909  0.98546799  0.26283481     0.09400
C532        C  0.20742155  0.98134820  0.20690081     0.35300
C533        C  0.34277066  0.60426208  0.22676602     0.38700
C534        C  0.23454863  0.99021022  0.29212862    -0.04800
C535        C  0.22045547  0.96287467  0.31515691     0.02300
C536        C  0.21843355  0.92993124  0.30854177    -0.04400
C537        C  0.23151575  0.92513018  0.27888214    -0.00700
C538        C  0.24676596  0.95303178  0.25640749    -0.03200
C539        C  0.23513968  0.02332628  0.29845258     0.36000
C540        C  0.22831602  0.89117248  0.27088570     0.39700
C541        C  0.20929950  0.96937311  0.34610331     0.38000
C542        C  0.26126850  0.44839663  0.22653098     0.35700
C543        C  0.31719772  0.54660738  0.27056452     0.36400
C544        C  0.23519156  0.53462827  0.15901917     0.39600
N545        N  0.20051447  0.97460271  0.37079938    -0.38400
N546        N  0.23567925  0.04978284  0.30338110    -0.40000
N547        N  0.22566051  0.86405038  0.26451256    -0.37800
N548        N  0.27292538  0.44484541  0.20272323    -0.40100
N549        N  0.17960576  0.95686601  0.20366706    -0.39900
N550        N  0.21875292  0.53083166  0.13598949    -0.37500
N551        N  0.36951785  0.62952567  0.23187593    -0.38600
N552        N  0.33396630  0.54818040  0.29274775    -0.40300
C553        C  0.27244227  0.50939637  0.04421507    -0.05200
C554        C  0.25875522  0.51276613  0.01456419     0.09000
C555        C  0.25945909  0.54472094  0.00686686    -0.02600
C556        C  0.27354868  0.57315588  0.02882587    -0.00800
C557        C  0.28716338  0.56983705  0.05873149    -0.04500
C558        C  0.28653603  0.53770749  0.06625929     0.02600
C559        C  0.24451964  0.98294020  0.49091791     0.09400
C560        C  0.24593698  0.54835150  0.47609016     0.35300
C561        C  0.29934591  0.53309123  0.09709213     0.38700
C562        C  0.21070747  0.95309581  0.49533173    -0.04800
C563        C  0.19720030  0.92531353  0.47268690     0.02300
C564        C  0.21687327  0.92783364  0.44462594    -0.04400
C565        C  0.25125969  0.95762411  0.44076729    -0.00700
C566        C  0.26511134  0.98462516  0.46411794    -0.03200
C567        C  0.18977297  0.95106700  0.02324748     0.36000
C568        C  0.27239688  0.96141013  0.41245510     0.39700
C569        C  0.16361524  0.89362755  0.47906899     0.38800
C570        C  0.30082538  0.51426301  0.46075327     0.35700
C571        C  0.27206160  0.97664437  0.05194754     0.36400
C572        C  0.27483168  0.60610416  0.02014162     0.39600
N573        N  0.13694623  0.86825732  0.48420865    -0.38400
N574        N  0.17310924  0.94940003  0.04555973    -0.40000
N575        N  0.28938306  0.96449932  0.38996965    -0.37800
N576        N  0.32929871  0.53791513  0.45827220    -0.40100
N577        N  0.23529147  0.55123205  0.45145664    -0.39900
N578        N  0.27582383  0.63237652  0.01326951    -0.37500
N579        N  0.30962840  0.52940240  0.12162168    -0.38600
N580        N  0.27159459  0.95045263  0.05806178    -0.40300
C581        C  0.29064653  0.74426429  0.50605347    -0.05200
C582        C  0.25791519  0.74284589  0.01186413     0.09000
C583        C  0.23911742  0.72752903  0.04040957    -0.02600
C584        C  0.25306064  0.71396053  0.06338497    -0.00800
C585        C  0.28581940  0.71508069  0.05766137    -0.04500
C586        C  0.30458089  0.73049793  0.02888672     0.02600
C587        C  0.24309344  0.75729138  0.48759915     0.09400
C588        C  0.20520780  0.72561353  0.04598194     0.35300
C589        C  0.33793916  0.73161367  0.02223721     0.38700
C590        C  0.22554748  0.73721062  0.46023838    -0.04800
C591        C  0.21185701  0.75091061  0.43712744     0.02300
C592        C  0.21472955  0.78457346  0.44174907    -0.04400
C593        C  0.23160493  0.80422035  0.46977395    -0.00700
C594        C  0.24618774  0.79080974  0.49230009    -0.03200
C595        C  0.22162563  0.70231735  0.45596636     0.36000
C596        C  0.23310899  0.83777104  0.47614466     0.39700
C597        C  0.19594826  0.73063527  0.40815341     0.38800
C598        C  0.26454670  0.81153254  0.52038719     0.35700
C599        C  0.30974824  0.75977686  0.47647567     0.36400
C600        C  0.23411865  0.70014042  0.09339881     0.39600
N601        N  0.18327900  0.71444511  0.38506164    -0.38400
N602        N  0.21853534  0.67450009  0.45269828    -0.40000
N603        N  0.23424477  0.86447537  0.48126094    -0.37800
N604        N  0.27923640  0.82804991  0.54277950    -0.40100
N605        N  0.17817643  0.72411439  0.05030436    -0.39900
N606        N  0.21898958  0.68922047  0.11732960    -0.37500
N607        N  0.36464891  0.73261009  0.51703707    -0.38600
N608        N  0.32483642  0.77201356  0.45278483    -0.40300
C609        C  0.19945824  0.74730663  0.25599434    -0.05200
C610        C  0.23281018  0.74968032  0.25973173     0.09000
C611        C  0.25404406  0.76741248  0.28647186    -0.02600
C612        C  0.24144473  0.78151702  0.31017436    -0.00800
C613        C  0.20838461  0.78025174  0.30615140    -0.04500
C614        C  0.18763491  0.76335425  0.27860945     0.02600
C615        C  0.24636759  0.73440098  0.23507976     0.09400
C616        C  0.28923256  0.77159000  0.28924722     0.35300
C617        C  0.15469715  0.76337449  0.27278440     0.38700
C618        C  0.26215693  0.75353001  0.20681397    -0.04800
C619        C  0.27718160  0.74048232  0.18443142     0.02300
C620        C  0.27747644  0.70853730  0.19064866    -0.04400
C621        C  0.26106867  0.68912842  0.21893026    -0.00700
C622        C  0.24524495  0.70191033  0.24083877    -0.03200
C623        C  0.26332694  0.78700943  0.20103536     0.36000
C624        C  0.26139678  0.65664472  0.22622351     0.39700
C625        C  0.29134250  0.75966496  0.15458114     0.38800
C626        C  0.22795299  0.68181222  0.26954838     0.35700
C627        C  0.17737708  0.72833574  0.22875464     0.36400
C628        C  0.26210764  0.79590636  0.33926624     0.39600
N629        N  0.30253933  0.77491646  0.13076905    -0.38400
N630        N  0.26425311  0.81371585  0.19651234    -0.40000
N631        N  0.26164812  0.63073498  0.23204916    -0.37800
N632        N  0.21406118  0.66581771  0.29242609    -0.40100
N633        N  0.31739580  0.77514406  0.29117323    -0.39900
N634        N  0.27847933  0.80714578  0.36252612    -0.37500
N635        N  0.12850927  0.76353629  0.26806877    -0.38600
N636        N  0.15975146  0.71306164  0.20708620    -0.40300
O637        O  0.11723826  0.83752297  0.83938455    -0.81500
C638        C  0.20083646  0.79939807  0.91711054     0.97800
O639        O  0.17300924  0.77906430  0.90188768    -0.70600
O640        O  0.11643483  0.78346908  0.91292008    -0.74200
Al641      Al  0.14157345  0.78614786  0.87507205     1.49000
C642        C  0.10004837  0.79978284  0.91928969     0.93100
O643        O  0.16847865  0.88385347  0.91413582    -0.80500
O644        O  0.21758862  0.88224688  0.83740012    -0.74000
Al645      Al  0.14441526  0.85896043  0.87665578     1.90100
O646        O  0.22142414  0.89314966  0.90243881    -0.73100
O647        O  0.21749315  0.82290677  0.84628317    -0.72900
O648        O  0.21734746  0.83203305  0.91116023    -0.78600
O649        O  0.16300055  0.78166232  0.83725731    -0.76800
O650        O  0.16669685  0.83353624  0.87534427    -1.12900
O651        O  0.10478909  0.78305822  0.84813405    -0.72100
C652        C  0.09924053  0.80500052  0.83306678     0.98600
C653        C  0.20136825  0.89993839  0.91922495     0.95000
Al654      Al  0.21413593  0.85557686  0.87438005     1.55600
O655        O  0.10681711  0.82755915  0.90420392    -0.76800
C656        C  0.19551481  0.79590692  0.83100460     0.99200
C657        C  0.20337327  0.90102582  0.83286589     0.94000
O658        O  0.17695478  0.89612820  0.84934739    -0.82100
O659        O  0.33613928  0.61807486  0.66369931    -0.81500
C660        C  0.30046124  0.70068128  0.58195618     0.97800
O661        O  0.27977183  0.67296503  0.59712614    -0.70600
O662        O  0.28509062  0.61647443  0.58684376    -0.74200
Al663      Al  0.28612744  0.64142353  0.62440801     1.49000
C664        C  0.30100623  0.59923978  0.58252858     0.93100
O665        O  0.38476241  0.66724379  0.58894346    -0.80500
O666        O  0.38145650  0.71825631  0.66359207    -0.74000
Al667      Al  0.35879214  0.64419462  0.62626521     1.90100
O668        O  0.39418013  0.72061056  0.59900572    -0.73100
O669        O  0.32178964  0.71739135  0.65235305    -0.72900
O670        O  0.33314393  0.71666279  0.58785439    -0.78600
O671        O  0.28050218  0.66285031  0.66168739    -0.76800
O672        O  0.33352403  0.66655563  0.62548562    -1.12900
O673        O  0.28190212  0.60434691  0.65164640    -0.72100
C674        C  0.30326389  0.59926128  0.66821984     0.98600
C675        C  0.40143950  0.70004083  0.58355960     0.95000
Al676      Al  0.35561587  0.71392908  0.62570273     1.55600
O677        O  0.32794800  0.60593006  0.59903049    -0.76800
C678        C  0.29429797  0.69546585  0.66723173     0.99200
C679        C  0.40056866  0.70454447  0.66891379     0.94000
O680        O  0.39539907  0.67738044  0.65360156    -0.82100
C681        C  0.01193648  0.77098985  0.96123949    -0.05200
C682        C  0.01649472  0.75701298  0.99029477     0.09000
C683        C  0.04852790  0.75704066  0.49610458    -0.02600
C684        C  0.07609905  0.77145468  0.97319798    -0.00800
C685        C  0.07159892  0.78552888  0.94403533    -0.04500
C686        C  0.03918262  0.78489941  0.93808448     0.02600
C687        C  0.48729068  0.74203299  0.51466526     0.09400
C688        C  0.05291749  0.74185773  0.52560013     0.35300
C689        C  0.03302219  0.79701051  0.90750863     0.38700
C690        C  0.45644295  0.70930730  0.50891510    -0.04800
C691        C  0.42798912  0.69605938  0.53086908     0.02300
C692        C  0.43070083  0.71481434  0.55951320    -0.04400
C693        C  0.46205845  0.74736079  0.56550388    -0.00700
C694        C  0.48997079  0.76104515  0.54296216    -0.03200
C695        C  0.45403375  0.68914747  0.98026622     0.36000
C696        C  0.46633239  0.76649287  0.59527057     0.39700
C697        C  0.39547653  0.66373943  0.52324054     0.38800
C698        C  0.02155067  0.79483803  0.54879235     0.35700
C699        C  0.47890669  0.77072556  0.95504202     0.36400
C700        C  0.10926400  0.77223655  0.97997553     0.39600
N701        N  0.36949369  0.63804321  0.51712663    -0.38400
N702        N  0.45223045  0.67318683  0.95741652    -0.40000
N703        N  0.46975300  0.78174946  0.61898856    -0.37800
N704        N  0.04683383  0.82168436  0.55352208    -0.40100
N705        N  0.05639536  0.72977818  0.54915803    -0.39900
N706        N  0.13569135  0.77279660  0.98529587    -0.37500
N707        N  0.02808590  0.80655240  0.88309193    -0.38600
N708        N  0.45241925  0.77016714  0.95008652    -0.40300
C709        C  0.04571863  0.80126726  0.75850136    -0.05200
C710        C  0.01638976  0.76689093  0.76103140     0.09000
C711        C  0.01423379  0.74494629  0.78677014    -0.02600
C712        C  0.04072617  0.75754460  0.81057156    -0.00800
C713        C  0.07073252  0.79201669  0.80810137    -0.04500
C714        C  0.07306707  0.81370051  0.78162337     0.02600
C715        C  0.48764671  0.75313196  0.73635644     0.09400
C716        C  0.98467467  0.70902182  0.78846038     0.35300
C717        C  0.10395569  0.84843993  0.77734757     0.38700
C718        C  0.49027595  0.73547455  0.70906037    -0.04800
C719        C  0.46224912  0.72031127  0.68675492     0.02300
C720        C  0.43042790  0.72122232  0.69238528    -0.04400
C721        C  0.42799933  0.73905777  0.71998579    -0.00700
C722        C  0.45682539  0.75553659  0.74145036    -0.03200
C723        C  0.02177983  0.73241507  0.70426834     0.36000
C724        C  0.39550086  0.73947309  0.72718454     0.39700
C725        C  0.46699200  0.70486114  0.65754941     0.38800
C726        C  0.45481974  0.77483092  0.76906048     0.35700
C727        C  0.04779478  0.82369696  0.73184253     0.36400
C728        C  0.03608466  0.73502300  0.83800172     0.39600
N729        N  0.47085842  0.69267105  0.63422283    -0.38400
N730        N  0.04684492  0.72987363  0.70063070    -0.40000
N731        N  0.36956582  0.73972865  0.73301169    -0.37800
N732        N  0.45345631  0.79045249  0.79100768    -0.40100
N733        N  0.96119847  0.68034223  0.78951320    -0.39900
N734        N  0.03226279  0.71698906  0.85984043    -0.37500
N735        N  0.12857441  0.87612947  0.77390855    -0.38600
N736        N  0.04942496  0.84160311  0.71058890    -0.40300
C737        C  0.29616002  0.54459521  0.74280267    -0.05200
C738        C  0.26256400  0.51447636  0.73836353     0.09000
C739        C  0.24233374  0.51205243  0.71107864    -0.02600
C740        C  0.25577047  0.53930553  0.68796551    -0.00800
C741        C  0.28925913  0.57017315  0.69258985    -0.04500
C742        C  0.30923887  0.57261952  0.72040087     0.02600
C743        C  0.24792238  0.98542687  0.76280992     0.09400
C744        C  0.20732264  0.98139004  0.70693779     0.35300
C745        C  0.34282718  0.60430201  0.72676180     0.38700
C746        C  0.23457709  0.99020184  0.79213430    -0.04800
C747        C  0.22049500  0.96287264  0.81516903     0.02300
C748        C  0.21841392  0.92990753  0.80853417    -0.04400
C749        C  0.23142191  0.92507363  0.77884727    -0.00700
C750        C  0.24665667  0.95296515  0.75636113    -0.03200
C751        C  0.23523874  0.02334688  0.79848532     0.36000
C752        C  0.22816051  0.89109303  0.77083850     0.39700
C753        C  0.20941333  0.96939729  0.84614180     0.38000
C754        C  0.26118922  0.44840157  0.72652327     0.35700
C755        C  0.31726827  0.54665835  0.77057324     0.36400
C756        C  0.23523180  0.53464476  0.65904322     0.39600
N757        N  0.20068784  0.97464734  0.87085898    -0.38400
N758        N  0.23583568  0.04982702  0.80343583    -0.40000
N759        N  0.22545496  0.86395213  0.76445667    -0.37800
N760        N  0.27279760  0.44482997  0.70269456    -0.40100
N761        N  0.17948075  0.95693932  0.70372824    -0.39900
N762        N  0.21879919  0.53083303  0.63600639    -0.37500
N763        N  0.36958062  0.62956371  0.73185814    -0.38600
N764        N  0.33405247  0.54823209  0.79274444    -0.40300
C765        C  0.27244047  0.50937250  0.54422728    -0.05200
C766        C  0.25877746  0.51274730  0.51456425     0.09000
C767        C  0.25950354  0.54471072  0.50685544    -0.02600
C768        C  0.27357113  0.57314004  0.52882151    -0.00800
C769        C  0.28716812  0.56981871  0.55873611    -0.04500
C770        C  0.28653145  0.53768609  0.56627072     0.02600
C771        C  0.24453594  0.98292674  0.99091591     0.09400
C772        C  0.24583471  0.54834170  0.97612590     0.35300
C773        C  0.29933142  0.53307095  0.59710899     0.38700
C774        C  0.21070655  0.95310547  0.99531804    -0.04800
C775        C  0.19718720  0.92532416  0.97267290     0.02300
C776        C  0.21686787  0.92782443  0.94462252    -0.04400
C777        C  0.25127093  0.95759442  0.94077547    -0.00700
C778        C  0.26513394  0.98459087  0.96412944    -0.03200
C779        C  0.18977799  0.95103397  0.52327186     0.36000
C780        C  0.27241383  0.96136741  0.91247076     0.39700
C781        C  0.16357859  0.89366165  0.97904364     0.38800
C782        C  0.30079317  0.51430635  0.96073944     0.35700
C783        C  0.27200984  0.97664524  0.55196841     0.36400
C784        C  0.27484715  0.60608481  0.52013660     0.39600
N785        N  0.13688957  0.86831129  0.98417460    -0.38400
N786        N  0.17311749  0.94934709  0.54559298    -0.40000
N787        N  0.28940352  0.96444672  0.88999041    -0.37800
N788        N  0.32925485  0.53797566  0.95824507    -0.40100
N789        N  0.23513531  0.55120383  0.95151459    -0.39900
N790        N  0.27583081  0.63235322  0.51326448    -0.37500
N791        N  0.30960710  0.52938282  0.62164245    -0.38600
N792        N  0.27152520  0.95044724  0.55809285    -0.40300
C793        C  0.29059882  0.74428126  0.00610277    -0.05200
C794        C  0.25795495  0.74282046  0.51179259     0.09000
C795        C  0.23914115  0.72749835  0.54033083    -0.02600
C796        C  0.25307642  0.71393607  0.56332058    -0.00800
C797        C  0.28584250  0.71506452  0.55761903    -0.04500
C798        C  0.30461782  0.73048189  0.52885006     0.02600
C799        C  0.24303588  0.75730035  0.98767467     0.09400
C800        C  0.20522709  0.72557946  0.54588533     0.35300
C801        C  0.33798172  0.73160190  0.52222081     0.38700
C802        C  0.22542272  0.73717568  0.96035585    -0.04800
C803        C  0.21173339  0.75086446  0.93723391     0.02300
C804        C  0.21469009  0.78457214  0.94179644    -0.04400
C805        C  0.23162383  0.80425981  0.96978885    -0.00700
C806        C  0.24619053  0.79084907  0.99233175    -0.03200
C807        C  0.22143320  0.70224837  0.95613811     0.36000
C808        C  0.23320745  0.83785564  0.97611117     0.39700
C809        C  0.19573110  0.73052157  0.90831247     0.38800
C810        C  0.26459194  0.81160086  0.02039250     0.35700
C811        C  0.30967475  0.75977527  0.97650990     0.36400
C812        C  0.23412051  0.70011831  0.59332865     0.39600
N813        N  0.18298235  0.71427337  0.88526559    -0.38400
N814        N  0.21828941  0.67440443  0.95291483    -0.40000
N815        N  0.23440899  0.86459693  0.98119007    -0.37800
N816        N  0.27931294  0.82814038  0.04276490    -0.40100
N817        N  0.17819393  0.72408078  0.55019439    -0.39900
N818        N  0.21898083  0.68920097  0.61725517    -0.37500
N819        N  0.36460209  0.73261864  0.01703795    -0.38600
N820        N  0.32474100  0.77199561  0.95280642    -0.40300
C821        C  0.19944796  0.74731644  0.75598418    -0.05200
C822        C  0.23281853  0.74972649  0.75969435     0.09000
C823        C  0.25406733  0.76747802  0.78642093    -0.02600
C824        C  0.24145648  0.78154608  0.81014708    -0.00800
C825        C  0.20838041  0.78025209  0.80614801    -0.04500
C826        C  0.18762205  0.76335037  0.77861136     0.02600
C827        C  0.24636647  0.73443849  0.73504211     0.09400
C828        C  0.28928176  0.77171343  0.78915754     0.35300
C829        C  0.15467177  0.76335127  0.77280469     0.38700
C830        C  0.26215889  0.75356086  0.70677447    -0.04800
C831        C  0.27717371  0.74050032  0.68439358     0.02300
C832        C  0.27746008  0.70855173  0.69061711    -0.04400
C833        C  0.26104471  0.68914797  0.71889891    -0.00700
C834        C  0.24522897  0.70194162  0.74080411    -0.03200
C835        C  0.26334451  0.78704712  0.70099370     0.36000
C836        C  0.26135608  0.65665686  0.72619608     0.39700
C837        C  0.29133207  0.75967235  0.65453819     0.38800
C838        C  0.22793092  0.68185002  0.76951487     0.35700
C839        C  0.17734740  0.72831682  0.72876397     0.36400
C840        C  0.26211903  0.79591629  0.83924203     0.39600
N841        N  0.30252588  0.77491461  0.63072148    -0.38400
N842        N  0.26428552  0.81376030  0.69646942    -0.40000
N843        N  0.26159324  0.63074072  0.73202503    -0.37800
N844        N  0.21403322  0.66586154  0.79239353    -0.40100
N845        N  0.31746745  0.77531890  0.79104973    -0.39900
N846        N  0.27848764  0.80713526  0.86250654    -0.37500
N847        N  0.12847502  0.76349997  0.76810333    -0.38600
N848        N  0.15970391  0.71301634  0.70711331    -0.40300
O849        O  0.61723318  0.33753275  0.33938472    -0.81500
C850        C  0.70083952  0.29939164  0.41709096     0.97800
O851        O  0.67301338  0.27905919  0.40186497    -0.70600
O852        O  0.61643434  0.28346891  0.41291551    -0.74200
Al853      Al  0.64157034  0.28615304  0.37506235     1.49000
C854        C  0.60004912  0.29978400  0.41928900     0.93100
O855        O  0.66848084  0.38385952  0.41413953    -0.80500
O856        O  0.71759307  0.38225519  0.33740811    -0.74000
Al857      Al  0.64441623  0.35896764  0.37665738     1.90100
O858        O  0.72142645  0.39315480  0.40244555    -0.73100
O859        O  0.71748895  0.32290788  0.34628484    -0.72900
O860        O  0.71733890  0.33203112  0.41116104    -0.78600
O861        O  0.66299413  0.28167726  0.33724068    -0.76800
O862        O  0.66669544  0.33354200  0.37534276    -1.12900
O863        O  0.60477916  0.28306694  0.34813475    -0.72100
C864        C  0.59922790  0.30500957  0.33307127     0.98600
C865        C  0.70137000  0.39994367  0.41923090     0.95000
Al866      Al  0.71413422  0.35558037  0.37438352     1.55600
O867        O  0.60682289  0.32756447  0.40420724    -0.76800
C868        C  0.69551091  0.29591116  0.33100131     0.99200
C869        C  0.70337911  0.40103480  0.33287071     0.94000
O870        O  0.67695672  0.39613512  0.34934777    -0.82100
O871        O  0.83610434  0.11805509  0.16370087    -0.81500
C872        C  0.80044510  0.20069079  0.08197712     0.97800
O873        O  0.77975799  0.17297613  0.09714803    -0.70600
O874        O  0.78508013  0.11649086  0.08683792    -0.74200
Al875      Al  0.78611600  0.14142495  0.12441068     1.49000
C876        C  0.80099116  0.09925143  0.08252178     0.93100
O877        O  0.88476270  0.16722965  0.08895854    -0.80500
O878        O  0.88147062  0.21826178  0.16357611    -0.74000
Al879      Al  0.85877251  0.14417974  0.12627226     1.90100
O880        O  0.89415735  0.22059400  0.09898408    -0.73100
O881        O  0.82179726  0.21738667  0.15236973    -0.72900
O882        O  0.83312928  0.21666180  0.08786242    -0.78600
O883        O  0.78050433  0.16284367  0.16170038    -0.76800
O884        O  0.83351417  0.16655068  0.12548761    -1.12900
O885        O  0.78187414  0.10433027  0.15162979    -0.72100
C886        C  0.80322728  0.09923925  0.16820893     0.98600
C887        C  0.90142464  0.20002213  0.08355125     0.95000
Al888      Al  0.85561149  0.21392451  0.12569994     1.55600
O889        O  0.82792804  0.10593040  0.09902694    -0.76800
C890        C  0.79431041  0.19545856  0.16725436     0.99200
C891        C  0.90056269  0.20453174  0.16891194     0.94000
O892        O  0.89537142  0.17735133  0.15361702    -0.82100
C893        C  0.51197144  0.27109237  0.46127424    -0.05200
C894        C  0.51649808  0.25704997  0.49030145     0.09000
C895        C  0.54856047  0.25708468  0.99613562    -0.02600
C896        C  0.57606149  0.27138728  0.47317171    -0.00800
C897        C  0.57159685  0.28553158  0.44403528    -0.04500
C898        C  0.53921244  0.28498204  0.43811364     0.02600
C899        C  0.98723117  0.24201583  0.01460515     0.09400
C900        C  0.55298151  0.24194359  0.02564417     0.35300
C901        C  0.53307263  0.29714885  0.40755899     0.38700
C902        C  0.95639948  0.20927258  0.00887999    -0.04800
C903        C  0.92797505  0.19599851  0.03086833     0.02300
C904        C  0.93067328  0.21478991  0.05948762    -0.04400
C905        C  0.96200375  0.24737799  0.06543199    -0.00700
C906        C  0.98990944  0.26105147  0.04288321    -0.03200
C907        C  0.95407091  0.18920269  0.48029487     0.36000
C908        C  0.96625905  0.26656784  0.09515888     0.39700
C909        C  0.89551401  0.16359732  0.02330843     0.38800
C910        C  0.52158208  0.29476742  0.04885035     0.35700
C911        C  0.97888025  0.27060483  0.45506009     0.36400
C912        C  0.60918385  0.27206845  0.47991923     0.39600
N913        N  0.86957831  0.13782735  0.01725338    -0.38400
N914        N  0.95227134  0.17323740  0.45744959    -0.40000
N915        N  0.96966084  0.28187325  0.11884278    -0.37800
N916        N  0.54688024  0.32159460  0.05360213    -0.40100
N917        N  0.55648847  0.22989965  0.04921210    -0.39900
N918        N  0.63557489  0.27254376  0.48521607    -0.37500
N919        N  0.52815252  0.30673360  0.38315823    -0.38600
N920        N  0.95235932  0.26996967  0.45008598    -0.40300
C921        C  0.54568744  0.30124756  0.25850732    -0.05200
C922        C  0.51635786  0.26687226  0.26104907     0.09000
C923        C  0.51420144  0.24494428  0.28680303    -0.02600
C924        C  0.54069453  0.25755760  0.31060496    -0.00800
C925        C  0.57070810  0.29202258  0.30811567    -0.04500
C926        C  0.57304026  0.31369187  0.28162657     0.02600
C927        C  0.98764053  0.25307581  0.23635432     0.09400
C928        C  0.48464270  0.20902098  0.28850814     0.35300
C929        C  0.60393026  0.34842730  0.27733765     0.38700
C930        C  0.99023578  0.23536493  0.20908399    -0.04800
C931        C  0.96221759  0.22023386  0.18676952     0.02300
C932        C  0.93042464  0.22120514  0.19238005    -0.04400
C933        C  0.92803086  0.23909666  0.21995446    -0.00700
C934        C  0.95686111  0.25556374  0.24141578    -0.03200
C935        C  0.52177020  0.23241901  0.20427663     0.36000
C936        C  0.89556720  0.23959129  0.22712712     0.39700
C937        C  0.96694767  0.20476864  0.15756807     0.38800
C938        C  0.95490552  0.27493805  0.26898441     0.35700
C939        C  0.54775828  0.32366532  0.23184008     0.36400
C940        C  0.53604519  0.23506213  0.33805814     0.39600
N941        N  0.97080438  0.19257073  0.13424219    -0.38400
N942        N  0.54684184  0.22988925  0.20063849    -0.40000
N943        N  0.86966043  0.23991141  0.23293362    -0.37800
N944        N  0.95358457  0.29062898  0.29089444    -0.40100
N945        N  0.46116735  0.18034159  0.28957328    -0.39900
N946        N  0.53221701  0.21705105  0.35991688    -0.37500
N947        N  0.62855029  0.37611374  0.27388788    -0.38600
N948        N  0.54938195  0.34156098  0.21057966    -0.40300
C949        C  0.79609268  0.04456204  0.24278868    -0.05200
C950        C  0.76251225  0.01443084  0.23832517     0.09000
C951        C  0.74229414  0.01200536  0.21103146    -0.02600
C952        C  0.75572920  0.03927236  0.18793159    -0.00800
C953        C  0.78921167  0.07014446  0.19257154    -0.04500
C954        C  0.80917596  0.07259183  0.22039367     0.02600
C955        C  0.74797066  0.48544595  0.26282439     0.09400
C956        C  0.70742349  0.48133510  0.20689180     0.35300
C957        C  0.84274941  0.10428363  0.22677527     0.38700
C958        C  0.73456918  0.49020303  0.29212337    -0.04800
C959        C  0.72047179  0.46287150  0.31515551     0.02300
C960        C  0.71842795  0.42991873  0.30854002    -0.04400
C961        C  0.73148900  0.42510190  0.27887528    -0.00700
C962        C  0.74674349  0.45299859  0.25639613    -0.03200
C963        C  0.73518488  0.52333068  0.29844894     0.36000
C964        C  0.72826115  0.39113241  0.27087870     0.39700
C965        C  0.70933350  0.46938253  0.34610547     0.38000
C966        C  0.76129530  0.94842500  0.22653742     0.35700
C967        C  0.81717635  0.04663507  0.27058178     0.36400
C968        C  0.73519109  0.03462614  0.15901202     0.39600
N969        N  0.70056259  0.47462267  0.37080415    -0.38400
N970        N  0.73574494  0.54979690  0.30337826    -0.40000
N971        N  0.72558197  0.36400031  0.26450624    -0.37800
N972        N  0.77296447  0.94488405  0.20273284    -0.40100
N973        N  0.67960618  0.45685529  0.20365771    -0.39900
N974        N  0.71875549  0.03082617  0.13597959    -0.37500
N975        N  0.86949073  0.12955316  0.23188776    -0.38600
N976        N  0.83393934  0.04821651  0.29277214    -0.40300
C977        C  0.77242721  0.00939170  0.04421276    -0.05200
C978        C  0.75874155  0.01276152  0.01456113     0.09000
C979        C  0.75944580  0.04471642  0.00686336    -0.02600
C980        C  0.77353355  0.07315107  0.02882288    -0.00800
C981        C  0.78714971  0.06983342  0.05872820    -0.04500
C982        C  0.78652156  0.03770347  0.06625654     0.02600
C983        C  0.74451454  0.48294452  0.49091472     0.09400
C984        C  0.74595189  0.04836725  0.47607973     0.35300
C985        C  0.79933110  0.03308740  0.09708958     0.38700
C986        C  0.71070072  0.45310255  0.49532894    -0.04800
C987        C  0.69719305  0.42531674  0.47268746     0.02300
C988        C  0.71686681  0.42783094  0.44462865    -0.04400
C989        C  0.75125552  0.45761850  0.44077041    -0.00700
C990        C  0.76510700  0.48462372  0.46411738    -0.03200
C991        C  0.68978528  0.45107786  0.02324821     0.36000
C992        C  0.77239678  0.46139618  0.41246342     0.39700
C993        C  0.66360754  0.39363226  0.47907195     0.38800
C994        C  0.80082294  0.01427109  0.46073810     0.35700
C995        C  0.77207850  0.47665238  0.05194343     0.36400
C996        C  0.77481213  0.10609752  0.02013969     0.39600
N997        N  0.63693855  0.36826293  0.48421398    -0.38400
N998        N  0.67312215  0.44941213  0.04556052    -0.40000
N999        N  0.78938667  0.46447835  0.38998255    -0.37800
N1000       N  0.82929590  0.03792350  0.45825563    -0.40100
N1001       N  0.73531436  0.05125386  0.45144413    -0.39900
N1002       N  0.77580006  0.13236814  0.01326856    -0.37500
N1003       N  0.80961314  0.02939837  0.12161932    -0.38600
N1004       N  0.77161121  0.45046024  0.05805640    -0.40300
C1005       C  0.79062560  0.24424391  0.50605181    -0.05200
C1006       C  0.75792040  0.24284190  0.01184831     0.09000
C1007       C  0.73911907  0.22752467  0.04039222    -0.02600
C1008       C  0.75306183  0.21396058  0.06337231    -0.00800
C1009       C  0.78582270  0.21508342  0.05765425    -0.04500
C1010       C  0.80458717  0.23049981  0.02888057     0.02600
C1011       C  0.74307497  0.25727734  0.48760226     0.09400
C1012       C  0.70520714  0.22560600  0.04595900     0.35300
C1013       C  0.83794822  0.23161921  0.02223694     0.38700
C1014       C  0.72552642  0.23719638  0.46024229    -0.04800
C1015       C  0.71183476  0.25089664  0.43713255     0.02300
C1016       C  0.71471015  0.28456086  0.44175386    -0.04400
C1017       C  0.73158857  0.30420809  0.46977779    -0.00700
C1018       C  0.74617187  0.29079688  0.49230284    -0.03200
C1019       C  0.72160484  0.20230336  0.45596885     0.36000
C1020       C  0.73309610  0.33776040  0.47614846     0.39700
C1021       C  0.69592192  0.23062002  0.40816002     0.38800
C1022       C  0.76453554  0.31152112  0.52038782     0.35700
C1023       C  0.80972148  0.25974755  0.47646956     0.36400
C1024       C  0.73411830  0.20014444  0.09338611     0.39600
N1025       N  0.68324920  0.21442864  0.38506957    -0.38400
N1026       N  0.71851550  0.17448670  0.45269911    -0.40000
N1027       N  0.73423477  0.36446610  0.48126450    -0.37800
N1028       N  0.77922921  0.32803976  0.54277829    -0.40100
N1029       N  0.67817397  0.22410434  0.05027699    -0.39900
N1030       N  0.71898855  0.18922840  0.11731723    -0.37500
N1031       N  0.86462601  0.23258523  0.51703065    -0.38600
N1032       N  0.82480477  0.27197679  0.45277506    -0.40300
C1033       C  0.69946081  0.24728721  0.25601150    -0.05200
C1034       C  0.73281629  0.24966941  0.25975155     0.09000
C1035       C  0.75404582  0.26740503  0.28649289    -0.02600
C1036       C  0.74144009  0.28150730  0.31019204    -0.00800
C1037       C  0.70837934  0.28023958  0.30616295    -0.04500
C1038       C  0.68763300  0.26333637  0.27862087     0.02600
C1039       C  0.74638163  0.23439731  0.23509938     0.09400
C1040       C  0.78923620  0.27158838  0.28927337     0.35300
C1041       C  0.65469466  0.26335305  0.27278888     0.38700
C1042       C  0.76215816  0.25352424  0.20682923    -0.04800
C1043       C  0.77718067  0.24047938  0.18444145     0.02300
C1044       C  0.77748580  0.20853955  0.19065710    -0.04400
C1045       C  0.76109479  0.18913462  0.21894450    -0.00700
C1046       C  0.74527268  0.20191295  0.24085853    -0.03200
C1047       C  0.76331523  0.28699755  0.20105027     0.36000
C1048       C  0.76143912  0.15665894  0.22623723     0.39700
C1049       C  0.79132797  0.25965842  0.15458730     0.38800
C1050       C  0.72799411  0.18181623  0.26957234     0.35700
C1051       C  0.67737975  0.22830400  0.22877574     0.36400
C1052       C  0.76209697  0.29589663  0.33928699     0.39600
N1053       N  0.80251396  0.27490684  0.13077204    -0.38400
N1054       N  0.76423079  0.31369891  0.19652670    -0.40000
N1055       N  0.76170415  0.13075599  0.23206234    -0.37800
N1056       N  0.71411273  0.16582236  0.29245331    -0.40100
N1057       N  0.81740099  0.27514718  0.29120418    -0.39900
N1058       N  0.77846330  0.30713562  0.36254968    -0.37500
N1059       N  0.62850662  0.26351245  0.26806707    -0.38600
N1060       N  0.65975418  0.21301864  0.20711099    -0.40300
O1061       O  0.61722983  0.33752951  0.83939588    -0.81500
C1062       C  0.70084246  0.29940550  0.91710510     0.97800
O1063       O  0.67301220  0.27907255  0.90188595    -0.70600
O1064       O  0.61643946  0.28347876  0.91292606    -0.74200
Al1065     Al  0.64157405  0.28615652  0.87507465     1.49000
C1066       C  0.60005733  0.29979568  0.91930104     0.93100
O1067       O  0.66848847  0.38386694  0.91413787    -0.80500
O1068       O  0.71758663  0.38225664  0.83739893    -0.74000
Al1069     Al  0.64441705  0.35897027  0.87666192     1.90100
O1070       O  0.72143075  0.39315720  0.90243770    -0.73100
O1071       O  0.71749082  0.32291495  0.84627773    -0.72900
O1072       O  0.71735350  0.33204048  0.91115481    -0.78600
O1073       O  0.66299727  0.28166916  0.83725673    -0.76800
O1074       O  0.66669809  0.33354519  0.87534594    -1.12900
O1075       O  0.60478679  0.28306639  0.84814109    -0.72100
C1076       C  0.59923258  0.30500706  0.83307789     0.98600
C1077       C  0.70137808  0.39994790  0.91922610     0.95000
Al1078     Al  0.71413750  0.35558515  0.87437699     1.55600
O1079       O  0.60682596  0.32757284  0.90421705    -0.76800
C1080       C  0.69551130  0.29591323  0.83100219     0.99200
C1081       C  0.70336807  0.40103265  0.83286379     0.94000
O1082       O  0.67695044  0.39613426  0.84934703    -0.82100
O1083       O  0.83613601  0.11807101  0.66370062    -0.81500
C1084       C  0.80045051  0.20067349  0.58195873     0.97800
O1085       O  0.77976251  0.17295874  0.59713131    -0.70600
O1086       O  0.78508469  0.11646968  0.58684654    -0.74200
Al1087     Al  0.78612172  0.14141811  0.62441176     1.49000
C1088       C  0.80100230  0.09923722  0.58252884     0.93100
O1089       O  0.88475844  0.16724233  0.58894511    -0.80500
O1090       O  0.88145005  0.21825528  0.66359161    -0.74000
Al1091     Al  0.85878816  0.14419232  0.62626668     1.90100
O1092       O  0.89417328  0.22060842  0.59900563    -0.73100
O1093       O  0.82178143  0.21738612  0.65235349    -0.72900
O1094       O  0.83313394  0.21665509  0.58785400    -0.78600
O1095       O  0.78049793  0.16284469  0.66169278    -0.76800
O1096       O  0.83351839  0.16655163  0.62548735    -1.12900
O1097       O  0.78189850  0.10434169  0.65164888    -0.72100
C1098       C  0.80326085  0.09925671  0.66822186     0.98600
C1099       C  0.90143406  0.20003919  0.58356052     0.95000
Al1100     Al  0.85560815  0.21392502  0.62570266     1.55600
O1101       O  0.82794456  0.10592760  0.59903041    -0.76800
C1102       C  0.79429222  0.19546059  0.66723531     0.99200
C1103       C  0.90056207  0.20454385  0.66891589     0.94000
O1104       O  0.89539415  0.17737963  0.65360448    -0.82100
C1105       C  0.51195218  0.27100706  0.96126126    -0.05200
C1106       C  0.51650856  0.25701935  0.99031116     0.09000
C1107       C  0.54851106  0.25703143  0.49610066    -0.02600
C1108       C  0.57611502  0.27146981  0.97321135    -0.00800
C1109       C  0.57161164  0.28554374  0.94405016    -0.04500
C1110       C  0.53919532  0.28491531  0.93810354     0.02600
C1111       C  0.98728653  0.24202814  0.51466805     0.09400
C1112       C  0.55289216  0.24183101  0.52558873     0.35300
C1113       C  0.53303136  0.29702594  0.90752895     0.38700
C1114       C  0.95643356  0.20930826  0.50891299    -0.04800
C1115       C  0.92797968  0.19606168  0.53086685     0.02300
C1116       C  0.93069538  0.21481270  0.55951441    -0.04400
C1117       C  0.96205683  0.24735431  0.56550891    -0.00700
C1118       C  0.98997072  0.26103643  0.54296868    -0.03200
C1119       C  0.95402760  0.18917694  0.98025208     0.36000
C1120       C  0.96633204  0.26648400  0.59527728     0.39700
C1121       C  0.89546241  0.16374812  0.52323455     0.38800
C1122       C  0.52155235  0.29482975  0.54880822     0.35700
C1123       C  0.97892212  0.27075627  0.95506102     0.36400
C1124       C  0.60928699  0.27226709  0.97999053     0.39600
N1125       N  0.86947575  0.13805725  0.51711757    -0.38400
N1126       N  0.95222052  0.17322504  0.95739498    -0.40000
N1127       N  0.96975362  0.28173909  0.61899640    -0.37800
N1128       N  0.54684064  0.32166995  0.55354420    -0.40100
N1129       N  0.55636271  0.22973630  0.54914015    -0.39900
N1130       N  0.63572139  0.27284264  0.98531292    -0.37500
N1131       N  0.52809171  0.30656652  0.88311302    -0.38600
N1132       N  0.95243841  0.27020745  0.95011060    -0.40300
C1133       C  0.54569093  0.30127013  0.75852473    -0.05200
C1134       C  0.51637505  0.26688497  0.76104657     0.09000
C1135       C  0.51423175  0.24493737  0.78677793    -0.02600
C1136       C  0.54072340  0.25754110  0.81058043    -0.00800
C1137       C  0.57071989  0.29202077  0.80811591    -0.04500
C1138       C  0.57304096  0.31370829  0.78164549     0.02600
C1139       C  0.98762774  0.25312096  0.73637299     0.09400
C1140       C  0.48468722  0.20900423  0.78845919     0.35300
C1141       C  0.60391711  0.34845763  0.77737585     0.38700
C1142       C  0.99026033  0.23546478  0.70907742    -0.04800
C1143       C  0.96223976  0.22030981  0.68676508     0.02300
C1144       C  0.93041824  0.22122143  0.69239086    -0.04400
C1145       C  0.92798648  0.23905646  0.71999044    -0.00700
C1146       C  0.95680835  0.25553084  0.74146016    -0.03200
C1147       C  0.52176018  0.23239039  0.70429440     0.36000
C1148       C  0.89549059  0.23948033  0.72718073     0.39700
C1149       C  0.96699185  0.20487390  0.65755443     0.38800
C1150       C  0.95480144  0.27482852  0.76906696     0.35700
C1151       C  0.54775246  0.32370369  0.73187470     0.36400
C1152       C  0.53609010  0.23501709  0.83800651     0.39600
N1153       N  0.97086648  0.19269754  0.63422255    -0.38400
N1154       N  0.54682154  0.22984103  0.70066299    -0.40000
N1155       N  0.86955809  0.23974382  0.73300065    -0.37800
N1156       N  0.95343735  0.29045356  0.79101107    -0.40100
N1157       N  0.46122372  0.18031740  0.78950471    -0.39900
N1158       N  0.53227443  0.21698162  0.85984246    -0.37500
N1159       N  0.62852575  0.37615512  0.77394157    -0.38600
N1160       N  0.54937009  0.34161263  0.71062817    -0.40300
C1161       C  0.79615822  0.04459283  0.74280654    -0.05200
C1162       C  0.76255981  0.01447626  0.73837069     0.09000
C1163       C  0.74232740  0.01205344  0.71108778    -0.02600
C1164       C  0.75576557  0.03930375  0.68797192    -0.00800
C1165       C  0.78925667  0.07016942  0.69259298    -0.04500
C1166       C  0.80923799  0.07261539  0.72040279     0.02600
C1167       C  0.74791185  0.48542686  0.76279952     0.09400
C1168       C  0.70732190  0.48139130  0.70692079     0.35300
C1169       C  0.84282984  0.10429515  0.72675999     0.38700
C1170       C  0.73455368  0.49019933  0.79211726    -0.04800
C1171       C  0.72047210  0.46287252  0.81515448     0.02300
C1172       C  0.71840369  0.42991119  0.80852797    -0.04400
C1173       C  0.73142075  0.42507855  0.77884541    -0.00700
C1174       C  0.74665597  0.45296859  0.75635773    -0.03200
C1175       C  0.73520200  0.52333975  0.79845862     0.36000
C1176       C  0.72816852  0.39110051  0.77084227     0.39700
C1177       C  0.70937846  0.46939675  0.84612132     0.38000
C1178       C  0.76117488  0.94839893  0.72651919     0.35700
C1179       C  0.81726798  0.04665540  0.77057573     0.36400
C1180       C  0.73522651  0.03464116  0.65904957     0.39600
N1181       N  0.70064344  0.47464690  0.87083372    -0.38400
N1182       N  0.73578781  0.54981607  0.80340050    -0.40000
N1183       N  0.72547003  0.36396155  0.76446487    -0.37800
N1184       N  0.77277682  0.94482762  0.70268643    -0.40100
N1185       N  0.67948185  0.45693931  0.70370637    -0.39900
N1186       N  0.71879380  0.03082763  0.63601240    -0.37500
N1187       N  0.86958621  0.12955443  0.73185340    -0.38600
N1188       N  0.83405303  0.04822863  0.79274611    -0.40300
C1189       C  0.77243565  0.00937317  0.54421874    -0.05200
C1190       C  0.75877847  0.01275317  0.51455418     0.09000
C1191       C  0.75950955  0.04471949  0.50684730    -0.02600
C1192       C  0.77357360  0.07314512  0.52881755    -0.00800
C1193       C  0.78716625  0.06981907  0.55873289    -0.04500
C1194       C  0.78652721  0.03768474  0.56626459     0.02600
C1195       C  0.74454776  0.48293608  0.99091607     0.09400
C1196       C  0.74582513  0.04833813  0.97612071     0.35300
C1197       C  0.79932552  0.03306597  0.59710229     0.38700
C1198       C  0.71071861  0.45311516  0.99531890    -0.04800
C1199       C  0.69719961  0.42533299  0.97267490     0.02300
C1200       C  0.71688100  0.42783164  0.94462544    -0.04400
C1201       C  0.75128684  0.45759829  0.94078097    -0.00700
C1202       C  0.76514745  0.48459811  0.96413180    -0.03200
C1203       C  0.68976997  0.45104718  0.52326600     0.36000
C1204       C  0.77243792  0.46136180  0.91248481     0.39700
C1205       C  0.66359229  0.39366974  0.97904752     0.38800
C1206       C  0.80078157  0.01430060  0.96073816     0.35700
C1207       C  0.77200318  0.47664805  0.55196521     0.36400
C1208       C  0.77484956  0.10609082  0.52013665     0.39600
N1209       N  0.63690476  0.36831854  0.98418070    -0.38400
N1210       N  0.67310851  0.44936603  0.54558454    -0.40000
N1211       N  0.78943556  0.46443267  0.89001262    -0.37800
N1212       N  0.82924448  0.03796827  0.95824581    -0.40100
N1213       N  0.73512943  0.05120107  0.95150769    -0.39900
N1214       N  0.77583262  0.13235976  0.51326793    -0.37500
N1215       N  0.80960029  0.02937502  0.62163513    -0.38600
N1216       N  0.77151753  0.45044949  0.55808925    -0.40300
C1217       C  0.79060634  0.24428037  0.00609253    -0.05200
C1218       C  0.75793748  0.24280625  0.51179495     0.09000
C1219       C  0.73912931  0.22749235  0.54033763    -0.02600
C1220       C  0.75306633  0.21393131  0.56332705    -0.00800
C1221       C  0.78582936  0.21505459  0.55762175    -0.04500
C1222       C  0.80459940  0.23046446  0.52884889     0.02600
C1223       C  0.74304595  0.25730083  0.98765833     0.09400
C1224       C  0.70521973  0.22558158  0.54589753     0.35300
C1225       C  0.83796071  0.23158021  0.52221662     0.38700
C1226       C  0.72543645  0.23718130  0.96033599    -0.04800
C1227       C  0.71174526  0.25087231  0.93721786     0.02300
C1228       C  0.71469949  0.28457820  0.94178630    -0.04400
C1229       C  0.73163376  0.30426255  0.96977983    -0.00700
C1230       C  0.74619988  0.29084867  0.99232007    -0.03200
C1231       C  0.72145316  0.20225748  0.95611019     0.36000
C1232       C  0.73321829  0.33785808  0.97610612     0.39700
C1233       C  0.69574277  0.23053362  0.90829447     0.38800
C1234       C  0.76460018  0.31159632  0.02038304     0.35700
C1235       C  0.80968701  0.25977672  0.97650221     0.36400
C1236       C  0.73411570  0.20012040  0.59333856     0.39600
N1237       N  0.68299352  0.21428891  0.88524602    -0.38400
N1238       N  0.71831485  0.17441658  0.95287954    -0.40000
N1239       N  0.73442086  0.36459927  0.98118817    -0.37800
N1240       N  0.77932054  0.32813218  0.04275731    -0.40100
N1241       N  0.67819042  0.22408995  0.55021112    -0.39900
N1242       N  0.71898003  0.18920857  0.61726771    -0.37500
N1243       N  0.86461354  0.23262755  0.01704229    -0.38600
N1244       N  0.82475732  0.27199936  0.95280089    -0.40300
C1245       C  0.69944899  0.24732516  0.75598177    -0.05200
C1246       C  0.73281359  0.24972297  0.75969973     0.09000
C1247       C  0.75405642  0.26746506  0.78643235    -0.02600
C1248       C  0.74144617  0.28153780  0.81015490    -0.00800
C1249       C  0.70837617  0.28025495  0.80614831    -0.04500
C1250       C  0.68762328  0.26336113  0.77860727     0.02600
C1251       C  0.74636306  0.23443512  0.73504800     0.09400
C1252       C  0.78926451  0.27168648  0.78917880     0.35300
C1253       C  0.65467981  0.26337363  0.77279450     0.38700
C1254       C  0.76215720  0.25355812  0.70678091    -0.04800
C1255       C  0.77716986  0.24049624  0.68439898     0.02300
C1256       C  0.77745562  0.20854723  0.69062189    -0.04400
C1257       C  0.76104139  0.18914431  0.71890443    -0.00700
C1258       C  0.74522440  0.20193744  0.74080914    -0.03200
C1259       C  0.76334703  0.28704653  0.70100158     0.36000
C1260       C  0.76135603  0.15665523  0.72620321     0.39700
C1261       C  0.79132635  0.25966745  0.65454287     0.38800
C1262       C  0.72792271  0.18184366  0.76951794     0.35700
C1263       C  0.67735466  0.22833673  0.72875481     0.36400
C1264       C  0.76210317  0.29590282  0.83925354     0.39600
N1265       N  0.80251834  0.27490868  0.63072543    -0.38400
N1266       N  0.76429173  0.31376161  0.69647827    -0.40000
N1267       N  0.76159654  0.13074106  0.73203381    -0.37800
N1268       N  0.71402170  0.16585313  0.79239472    -0.40100
N1269       N  0.81744507  0.27528026  0.79107925    -0.39900
N1270       N  0.77846750  0.30711821  0.86252071    -0.37500
N1271       N  0.62848863  0.26353201  0.76808857    -0.38600
N1272       N  0.65971647  0.21304565  0.70709839    -0.40300
O1273       O  0.61722220  0.83749814  0.33938534    -0.81500
C1274       C  0.70085351  0.79940969  0.41710483     0.97800
O1275       O  0.67301815  0.77907113  0.40189544    -0.70600
O1276       O  0.61644660  0.78348233  0.41293697    -0.74200
Al1277     Al  0.64157425  0.78614489  0.37508435     1.49000
C1278       C  0.60006401  0.79980089  0.41930453     0.93100
O1279       O  0.66848589  0.88387000  0.41411425    -0.80500
O1280       O  0.71758488  0.88224238  0.33738809    -0.74000
Al1281     Al  0.64441155  0.85895551  0.37664533     1.90100
O1282       O  0.72142949  0.89315487  0.40242494    -0.73100
O1283       O  0.71748648  0.82290042  0.34627327    -0.72900
O1284       O  0.71736009  0.83204301  0.41114939    -0.78600
O1285       O  0.66299164  0.78164534  0.33726887    -0.76800
O1286       O  0.66669663  0.83353411  0.37534114    -1.12900
O1287       O  0.60478130  0.78304078  0.34815027    -0.72100
C1288       C  0.59922626  0.80497393  0.33307513     0.98600
C1289       C  0.70137496  0.89995018  0.41920621     0.95000
Al1290     Al  0.71413675  0.85557728  0.37436890     1.55600
O1291       O  0.60682578  0.82756882  0.40420843    -0.76800
C1292       C  0.69550410  0.79589147  0.33100686     0.99200
C1293       C  0.70336057  0.90101126  0.33284400     0.94000
O1294       O  0.67693680  0.89610621  0.34932016    -0.82100
O1295       O  0.83613558  0.61806510  0.16370104    -0.81500
C1296       C  0.80043873  0.70066701  0.08196759     0.97800
O1297       O  0.77975434  0.67295034  0.09713880    -0.70600
O1298       O  0.78508579  0.61646831  0.08684772    -0.74200
Al1299     Al  0.78612011  0.64141063  0.12441418     1.49000
C1300       C  0.80100544  0.59923809  0.08252932     0.93100
O1301       O  0.88475993  0.66723843  0.08894677    -0.80500
O1302       O  0.88145878  0.71825520  0.16358541    -0.74000
Al1303     Al  0.85878803  0.64418776  0.12626748     1.90100
O1304       O  0.89416130  0.72060175  0.09899390    -0.73100
O1305       O  0.82178197  0.71737644  0.15236376    -0.72900
O1306       O  0.83312230  0.71664985  0.08786051    -0.78600
O1307       O  0.78049732  0.66283262  0.16169709    -0.76800
O1308       O  0.83351725  0.66654638  0.12548860    -1.12900
O1309       O  0.78189763  0.60433145  0.15164601    -0.72100
C1310       C  0.80326029  0.59924782  0.16821925     0.98600
C1311       C  0.90142489  0.70003314  0.08355089     0.95000
Al1312     Al  0.85560501  0.71391963  0.12570286     1.55600
O1313       O  0.82794697  0.60592774  0.09903092    -0.76800
C1314       C  0.79429227  0.69544769  0.16724364     0.99200
C1315       C  0.90056483  0.70453784  0.16891240     0.94000
O1316       O  0.89539071  0.67737039  0.15360458    -0.82100
C1317       C  0.51195994  0.77099985  0.46127028    -0.05200
C1318       C  0.51653454  0.75704291  0.49033154     0.09000
C1319       C  0.54847768  0.75697109  0.99606902    -0.02600
C1320       C  0.57614981  0.77152259  0.47323396    -0.00800
C1321       C  0.57162693  0.78556222  0.44406083    -0.04500
C1322       C  0.53920119  0.78491277  0.43811072     0.02600
C1323       C  0.98725071  0.74201594  0.01462780     0.09400
C1324       C  0.55284886  0.74176211  0.02555600     0.35300
C1325       C  0.53302888  0.79701238  0.40753366     0.38700
C1326       C  0.95640905  0.70928162  0.00889335    -0.04800
C1327       C  0.92796641  0.69603096  0.03086016     0.02300
C1328       C  0.93067573  0.71480512  0.05949204    -0.04400
C1329       C  0.96202123  0.74737139  0.06545728    -0.00700
C1330       C  0.98992904  0.76104682  0.04291074    -0.03200
C1331       C  0.95407553  0.68919782  0.48028160     0.36000
C1332       C  0.96628737  0.76653622  0.09520193     0.39700
C1333       C  0.89546881  0.66368440  0.02325831     0.38800
C1334       C  0.52150905  0.79482621  0.04872880     0.35700
C1335       C  0.97892847  0.77074672  0.45507092     0.36400
C1336       C  0.60933633  0.77235285  0.48001908     0.39600
N1337       N  0.86949947  0.63796487  0.01716596    -0.38400
N1338       N  0.95227884  0.67323990  0.45743186    -0.40000
N1339       N  0.96969954  0.78182023  0.11890117    -0.37800
N1340       N  0.54679086  0.82167807  0.05344394    -0.40100
N1341       N  0.55631080  0.72965943  0.04910608    -0.39900
N1342       N  0.63578284  0.77295572  0.48534616    -0.37500
N1343       N  0.52808397  0.80654773  0.38311717    -0.38600
N1344       N  0.95243555  0.77017681  0.45011523    -0.40300
C1345       C  0.54565722  0.80124912  0.25854468    -0.05200
C1346       C  0.51636026  0.76685135  0.26104833     0.09000
C1347       C  0.51424354  0.74488382  0.28675166    -0.02600
C1348       C  0.54074279  0.75747978  0.31054731    -0.00800
C1349       C  0.57071544  0.79197977  0.30810853    -0.04500
C1350       C  0.57301212  0.81368448  0.28165990     0.02600
C1351       C  0.98762813  0.75309347  0.23637140     0.09400
C1352       C  0.48471759  0.70893860  0.28841091     0.35300
C1353       C  0.60387010  0.84844915  0.27740266     0.38700
C1354       C  0.99024864  0.73541785  0.20908534    -0.04800
C1355       C  0.96223115  0.72027411  0.18676992     0.02300
C1356       C  0.93042053  0.72120948  0.19238763    -0.04400
C1357       C  0.92799847  0.73905845  0.21998098    -0.00700
C1358       C  0.95682195  0.75552935  0.24144913    -0.03200
C1359       C  0.52173670  0.73234453  0.20430426     0.36000
C1360       C  0.89550983  0.73949790  0.22716801     0.39700
C1361       C  0.96697581  0.70482451  0.15756482     0.38800
C1362       C  0.95483050  0.77485097  0.26904366     0.35700
C1363       C  0.54769551  0.82369822  0.23191664     0.36400
C1364       C  0.53614385  0.73491911  0.33793473     0.39600
N1365       N  0.97084404  0.69263643  0.13423773    -0.38400
N1366       N  0.54679214  0.72978352  0.20067838    -0.40000
N1367       N  0.86958225  0.73977202  0.23298591    -0.37800
N1368       N  0.95347943  0.79049703  0.29097658    -0.40100
N1369       N  0.46126866  0.68024290  0.28943890    -0.39900
N1370       N  0.53235583  0.71685109  0.35973726    -0.37500
N1371       N  0.62846435  0.87615844  0.27397692    -0.38600
N1372       N  0.54929421  0.84161886  0.21068747    -0.40300
C1373       C  0.79614790  0.54459161  0.24280979    -0.05200
C1374       C  0.76256844  0.51445561  0.23835248     0.09000
C1375       C  0.74234971  0.51201857  0.21105510    -0.02600
C1376       C  0.75578071  0.53927840  0.18794865    -0.00800
C1377       C  0.78925687  0.57015778  0.19258615    -0.04500
C1378       C  0.80922505  0.57261617  0.22040863     0.02600
C1379       C  0.74791272  0.98541648  0.26279075     0.09400
C1380       C  0.70736455  0.98132719  0.20686676     0.35300
C1381       C  0.84279630  0.60431344  0.22678334     0.38700
C1382       C  0.73448340  0.99015806  0.29207907    -0.04800
C1383       C  0.72039784  0.96282828  0.31511227     0.02300
C1384       C  0.71839815  0.92989220  0.30850950    -0.04400
C1385       C  0.73148924  0.92509144  0.27885453    -0.00700
C1386       C  0.74672624  0.95298671  0.25637243    -0.03200
C1387       C  0.73506335  0.02327043  0.29839428     0.36000
C1388       C  0.72831594  0.89114171  0.27087203     0.39700
C1389       C  0.70922801  0.96932691  0.34605170     0.38000
C1390       C  0.76128448  0.44841774  0.22655213     0.35700
C1391       C  0.81723765  0.54667471  0.27060141     0.36400
C1392       C  0.73524660  0.53461690  0.15902315     0.39600
N1393       N  0.70043082  0.97455605  0.37074186    -0.38400
N1394       N  0.73559476  0.04972427  0.30331583    -0.40000
N1395       N  0.72568269  0.86402625  0.26451036    -0.37800
N1396       N  0.77292978  0.44486011  0.20274003    -0.40100
N1397       N  0.67954376  0.95685232  0.20363289    -0.39900
N1398       N  0.71881564  0.53080558  0.13598523    -0.37500
N1399       N  0.86953585  0.62958716  0.23189058    -0.38600
N1400       N  0.83400589  0.54826497  0.29279063    -0.40300
C1401       C  0.77246165  0.50938484  0.04421394    -0.05200
C1402       C  0.75878342  0.51275729  0.01455927     0.09000
C1403       C  0.75949270  0.54471385  0.00685883    -0.02600
C1404       C  0.77356161  0.57314151  0.02882569    -0.00800
C1405       C  0.78717228  0.56982226  0.05873356    -0.04500
C1406       C  0.78655208  0.53769550  0.06625919     0.02600
C1407       C  0.74454383  0.98293168  0.49090737     0.09400
C1408       C  0.74588984  0.54836880  0.47609842     0.35300
C1409       C  0.79936713  0.53308201  0.09709017     0.38700
C1410       C  0.71071974  0.95310197  0.49531258    -0.04800
C1411       C  0.69720048  0.92532471  0.47266257     0.02300
C1412       C  0.71687479  0.92783540  0.44460506    -0.04400
C1413       C  0.75127227  0.95761162  0.44075450    -0.00700
C1414       C  0.76513629  0.98460490  0.46411233    -0.03200
C1415       C  0.68975823  0.95106230  0.02325832     0.36000
C1416       C  0.77240780  0.96139266  0.41244232     0.39700
C1417       C  0.66359932  0.89365423  0.47903536     0.38800
C1418       C  0.80077977  0.51431059  0.46072769     0.35700
C1419       C  0.77204621  0.97666023  0.05194199     0.36400
C1420       C  0.77482361  0.60608177  0.02014872     0.39600
N1421       N  0.63691647  0.86829726  0.48416763    -0.38400
N1422       N  0.67309546  0.94939084  0.04557273    -0.40000
N1423       N  0.78939155  0.96447782  0.38995607    -0.37800
N1424       N  0.82924033  0.53798149  0.45823182    -0.40100
N1425       N  0.73521931  0.55124285  0.45147593    -0.39900
N1426       N  0.77579610  0.63234662  0.01328331    -0.37500
N1427       N  0.80965479  0.52939492  0.12161760    -0.38600
N1428       N  0.77158081  0.95046922  0.05805589    -0.40300
C1429       C  0.79065016  0.74431777  0.50609058    -0.05200
C1430       C  0.75792442  0.74281671  0.01182091     0.09000
C1431       C  0.73911694  0.72749720  0.04036251    -0.02600
C1432       C  0.75305112  0.71392504  0.06334434    -0.00800
C1433       C  0.78581434  0.71504982  0.05763514    -0.04500
C1434       C  0.80458330  0.73046490  0.02886309     0.02600
C1435       C  0.74308268  0.75732241  0.48764504     0.09400
C1436       C  0.70520949  0.72558904  0.04592764     0.35300
C1437       C  0.83794084  0.73157523  0.02222374     0.38700
C1438       C  0.72549514  0.73721188  0.46031156    -0.04800
C1439       C  0.71180063  0.75090081  0.43719500     0.02300
C1440       C  0.71472331  0.78459055  0.44177922    -0.04400
C1441       C  0.73164040  0.80426815  0.46977965    -0.00700
C1442       C  0.74621428  0.79085975  0.49231687    -0.03200
C1443       C  0.72153657  0.70229963  0.45607288     0.36000
C1444       C  0.73319992  0.83785077  0.47611431     0.39700
C1445       C  0.69583191  0.73058133  0.40825489     0.38800
C1446       C  0.76459979  0.81160234  0.52038671     0.35700
C1447       C  0.80974092  0.75982854  0.47650766     0.36400
C1448       C  0.73409441  0.70009545  0.09335010     0.39600
N1449       N  0.68311173  0.71435421  0.38519169    -0.38400
N1450       N  0.71841705  0.67446756  0.45283132    -0.40000
N1451       N  0.73438218  0.86458157  0.48120218    -0.37800
N1452       N  0.77930894  0.82813442  0.54276624    -0.40100
N1453       N  0.67818158  0.72409907  0.05024554    -0.39900
N1454       N  0.71895320  0.68916676  0.11727417    -0.37500
N1455       N  0.86467596  0.73270117  0.51706223    -0.38600
N1456       N  0.82481932  0.77206322  0.45281232    -0.40300
C1457       C  0.69942997  0.74729553  0.25598730    -0.05200
C1458       C  0.73278979  0.74968276  0.25970754     0.09000
C1459       C  0.75403152  0.76741689  0.28644331    -0.02600
C1460       C  0.74142951  0.78150210  0.31016162    -0.00800
C1461       C  0.70836301  0.78022615  0.30615460    -0.04500
C1462       C  0.68760658  0.76333114  0.27861548     0.02600
C1463       C  0.74633904  0.73439748  0.23505303     0.09400
C1464       C  0.78923021  0.77161606  0.28919785     0.35300
C1465       C  0.65466055  0.76334042  0.27280827     0.38700
C1466       C  0.76212691  0.75352101  0.20678439    -0.04800
C1467       C  0.77714920  0.74046773  0.18440414     0.02300
C1468       C  0.77745191  0.70852826  0.19063087    -0.04400
C1469       C  0.76104492  0.68912478  0.21891470    -0.00700
C1470       C  0.74521543  0.70190705  0.24081652    -0.03200
C1471       C  0.76330132  0.78700172  0.20100190     0.36000
C1472       C  0.76138259  0.65664818  0.22621861     0.39700
C1473       C  0.79129917  0.75963764  0.15454638     0.38800
C1474       C  0.72791682  0.68180994  0.26952465     0.35700
C1475       C  0.67733935  0.72832082  0.22875390     0.36400
C1476       C  0.76209291  0.79587659  0.33925546     0.39600
N1477       N  0.80248607  0.77487778  0.13072756    -0.38400
N1478       N  0.76423326  0.81371035  0.19647580    -0.40000
N1479       N  0.76164281  0.63074482  0.23205352    -0.37800
N1480       N  0.71401794  0.66581612  0.29240065    -0.40100
N1481       N  0.81740208  0.77518895  0.29110549    -0.39900
N1482       N  0.77846364  0.80710139  0.36251799    -0.37500
N1483       N  0.62846617  0.76349408  0.26810756    -0.38600
N1484       N  0.65970485  0.71304292  0.20709120    -0.40300
O1485       O  0.61724526  0.83754759  0.83938587    -0.81500
C1486       C  0.70084324  0.79939589  0.91708889     0.97800
O1487       O  0.67302370  0.77906339  0.90185354    -0.70600
O1488       O  0.61644037  0.78346150  0.91290538    -0.74200
Al1489     Al  0.64157883  0.78615866  0.87505195     1.49000
C1490       C  0.60004650  0.79976730  0.91927971     0.93100
O1491       O  0.66847667  0.88384664  0.91415182    -0.80500
O1492       O  0.71759236  0.88226191  0.83740746    -0.74000
Al1493     Al  0.64441918  0.85896939  0.87666418     1.90100
O1494       O  0.72142562  0.89315972  0.90244582    -0.73100
O1495       O  0.71749885  0.82292005  0.84628347    -0.72900
O1496       O  0.71734170  0.83203635  0.91116120    -0.78600
O1497       O  0.66300495  0.78169591  0.83722757    -0.76800
O1498       O  0.66670032  0.83354670  0.87534166    -1.12900
O1499       O  0.60478688  0.78307761  0.84812608    -0.72100
C1500       C  0.59923883  0.80502581  0.83306779     0.98600
C1501       C  0.70136682  0.89993989  0.91923713     0.95000
Al1502     Al  0.71413823  0.85558773  0.87438325     1.55600
O1503       O  0.60681962  0.82755211  0.90420496    -0.76800
C1504       C  0.69552211  0.79593055  0.83099116     0.99200
C1505       C  0.70338250  0.90104730  0.83288112     0.94000
O1506       O  0.67696525  0.89615054  0.84936550    -0.82100
O1507       O  0.83611625  0.61806846  0.66370157    -0.81500
C1508       C  0.80047350  0.70071352  0.58197267     0.97800
O1509       O  0.77978197  0.67299545  0.59713794    -0.70600
O1510       O  0.78509976  0.61650662  0.58683173    -0.74200
Al1511     Al  0.78613138  0.64144076  0.62440469     1.49000
C1512       C  0.80100787  0.59926386  0.58251932     0.93100
O1513       O  0.88477613  0.66724523  0.58896142    -0.80500
O1514       O  0.88147358  0.71826755  0.66358869    -0.74000
Al1515     Al  0.85878633  0.64419375  0.62627403     1.90100
O1516       O  0.89418141  0.72061115  0.59900029    -0.73100
O1517       O  0.82180686  0.71740089  0.65236702    -0.72900
O1518       O  0.83315633  0.71668310  0.58786447    -0.78600
O1519       O  0.78051107  0.66285873  0.66169148    -0.76800
O1520       O  0.83352859  0.66656529  0.62548852    -1.12900
O1521       O  0.78188754  0.60434582  0.65162853    -0.72100
C1522       C  0.80323895  0.59925240  0.66820927     0.98600
C1523       C  0.90144602  0.70003953  0.58356344     0.95000
Al1524     Al  0.85562733  0.71393913  0.62570655     1.55600
O1525       O  0.82794210  0.60594085  0.59902809    -0.76800
C1526       C  0.79431451  0.69547346  0.66724499     0.99200
C1527       C  0.90057270  0.70454416  0.66891884     0.94000
O1528       O  0.89538712  0.67736772  0.65361954    -0.82100
C1529       C  0.51194701  0.77103897  0.96123806    -0.05200
C1530       C  0.51646778  0.75699381  0.99026557     0.09000
C1531       C  0.54860238  0.75714331  0.49616484    -0.02600
C1532       C  0.57603465  0.77133248  0.97314638    -0.00800
C1533       C  0.57158285  0.78549606  0.94401568    -0.04500
C1534       C  0.53919772  0.78494269  0.93808694     0.02600
C1535       C  0.98726296  0.74204524  0.51462916     0.09400
C1536       C  0.55304846  0.74204578  0.52569021     0.35300
C1537       C  0.53306761  0.79712028  0.90753396     0.38700
C1538       C  0.95643550  0.70929882  0.50890224    -0.04800
C1539       C  0.92800566  0.69602399  0.53088416     0.02300
C1540       C  0.93070039  0.71480933  0.55950630    -0.04400
C1541       C  0.96203313  0.74739215  0.56546033    -0.00700
C1542       C  0.98993801  0.76107488  0.54291077    -0.03200
C1543       C  0.95404596  0.68916727  0.98028138     0.36000
C1544       C  0.96629399  0.76656319  0.59520011     0.39700
C1545       C  0.89554342  0.66362791  0.52331502     0.38800
C1546       C  0.52159301  0.79479325  0.54886798     0.35700
C1547       C  0.97886339  0.77060067  0.95501801     0.36400
C1548       C  0.60914820  0.77199505  0.97989351     0.39600
N1549       N  0.86960651  0.63786249  0.51725243    -0.38400
N1550       N  0.95224588  0.67319691  0.95743963    -0.40000
N1551       N  0.96970243  0.78185195  0.61889575    -0.37800
N1552       N  0.54688431  0.82162647  0.55361873    -0.40100
N1553       N  0.55657642  0.73003943  0.54927287    -0.39900
N1554       N  0.63553078  0.77245226  0.98518936    -0.37500
N1555       N  0.52815566  0.80671379  0.88313443    -0.38600
N1556       N  0.95234832  0.76997692  0.95004169    -0.40300
C1557       C  0.54572171  0.80127143  0.75849100    -0.05200
C1558       C  0.51637220  0.76690957  0.76104677     0.09000
C1559       C  0.51419383  0.74499037  0.78681686    -0.02600
C1560       C  0.54068790  0.75759770  0.81061731    -0.00800
C1561       C  0.57071991  0.79204758  0.80811378    -0.04500
C1562       C  0.57307091  0.81371094  0.78161365     0.02600
C1563       C  0.98766483  0.75312349  0.73634309     0.09400
C1564       C  0.48461120  0.70908164  0.78853995     0.35300
C1565       C  0.60397498  0.84843568  0.77731979     0.38700
C1566       C  0.99026988  0.73543145  0.70906284    -0.04800
C1567       C  0.96224285  0.72028084  0.68675815     0.02300
C1568       C  0.93043795  0.72122468  0.69238270    -0.04400
C1569       C  0.92803580  0.73910017  0.71996529    -0.00700
C1570       C  0.95686883  0.75557699  0.74142232    -0.03200
C1571       C  0.52181031  0.73250504  0.70425081     0.36000
C1572       C  0.89556007  0.73956549  0.72715174     0.39700
C1573       C  0.96697281  0.70481815  0.65755503     0.38800
C1574       C  0.95489722  0.77492106  0.76900813     0.35700
C1575       C  0.54781735  0.82367984  0.73180651     0.36400
C1576       C  0.53602135  0.73511463  0.83808486     0.39600
N1577       N  0.97082920  0.69262057  0.63422878    -0.38400
N1578       N  0.54689607  0.73000300  0.70059950    -0.40000
N1579       N  0.86964400  0.73986265  0.73296931    -0.37800
N1580       N  0.95356249  0.79058497  0.79093395    -0.40100
N1581       N  0.46111528  0.68041430  0.78961961    -0.39900
N1582       N  0.53217970  0.71711402  0.85995544    -0.37500
N1583       N  0.62860542  0.87611436  0.77386769    -0.38600
N1584       N  0.54946329  0.84156861  0.71053175    -0.40300
C1585       C  0.79612068  0.54454342  0.74276665    -0.05200
C1586       C  0.76251349  0.51444055  0.73833107     0.09000
C1587       C  0.74227591  0.51204081  0.71105979    -0.02600
C1588       C  0.75571584  0.53930447  0.68795583    -0.00800
C1589       C  0.78922167  0.57015504  0.69257319    -0.04500
C1590       C  0.80920809  0.57257482  0.72037230     0.02600
C1591       C  0.74796513  0.98546458  0.76284180     0.09400
C1592       C  0.70738089  0.98139326  0.70694745     0.35300
C1593       C  0.84281432  0.60423711  0.72673035     0.38700
C1594       C  0.73461828  0.99023852  0.79216614    -0.04800
C1595       C  0.72052549  0.96290431  0.81519634     0.02300
C1596       C  0.71843023  0.92993431  0.80855469    -0.04400
C1597       C  0.73143640  0.92510066  0.77886677    -0.00700
C1598       C  0.74668813  0.95299831  0.75638842    -0.03200
C1599       C  0.73528428  0.02338509  0.79851998     0.36000
C1600       C  0.72815148  0.89111275  0.77084683     0.39700
C1601       C  0.70944532  0.96942733  0.84617047     0.38000
C1602       C  0.76115199  0.44837180  0.72649331     0.35700
C1603       C  0.81723045  0.54658356  0.77052850     0.36400
C1604       C  0.73515871  0.53467227  0.65905233     0.39600
N1605       N  0.70072144  0.97467654  0.87088879    -0.38400
N1606       N  0.73588399  0.04986622  0.80347267    -0.40000
N1607       N  0.72542558  0.86396561  0.76445528    -0.37800
N1608       N  0.77276267  0.44480256  0.70266497    -0.40100
N1609       N  0.67954707  0.95693254  0.70373160    -0.39900
N1610       N  0.71870930  0.53088277  0.63603152    -0.37500
N1611       N  0.86958262  0.62948192  0.73182449    -0.38600
N1612       N  0.83401490  0.54813824  0.79269320    -0.40300
C1613       C  0.77240900  0.50938878  0.54422375    -0.05200
C1614       C  0.75874637  0.51276639  0.51456118     0.09000
C1615       C  0.75948132  0.54473429  0.50685228    -0.02600
C1616       C  0.77357444  0.57317116  0.52881051    -0.00800
C1617       C  0.78716455  0.56984382  0.55872644    -0.04500
C1618       C  0.78650768  0.53770296  0.56626607     0.02600
C1619       C  0.74451020  0.98294179  0.99091600     0.09400
C1620       C  0.74590277  0.54834699  0.97610352     0.35300
C1621       C  0.79929459  0.53308042  0.59710858     0.38700
C1622       C  0.71069139  0.95310796  0.99532615    -0.04800
C1623       C  0.69718142  0.92532242  0.97268540     0.02300
C1624       C  0.71686175  0.92782857  0.94463296    -0.04400
C1625       C  0.75125467  0.95761172  0.94077778    -0.00700
C1626       C  0.76510614  0.98461702  0.96412381    -0.03200
C1627       C  0.68979137  0.95104849  0.52325086     0.36000
C1628       C  0.77239943  0.96138765  0.91247370     0.39700
C1629       C  0.66358334  0.89364985  0.97906257     0.38800
C1630       C  0.80083706  0.51426053  0.96076101     0.35700
C1631       C  0.77203275  0.97663321  0.55195730     0.36400
C1632       C  0.77488987  0.60613154  0.52011455     0.39600
N1633       N  0.63690284  0.86829125  0.98419809    -0.38400
N1634       N  0.67313135  0.94936691  0.54557063    -0.40000
N1635       N  0.78939187  0.96446953  0.88999480    -0.37800
N1636       N  0.82931214  0.53790988  0.95828113    -0.40100
N1637       N  0.73523588  0.55122073  0.95147899    -0.39900
N1638       N  0.77590915  0.63241416  0.51323281    -0.37500
N1639       N  0.80955914  0.52938670  0.62164585    -0.38600
N1640       N  0.77154870  0.95043469  0.55807806    -0.40300
C1641       C  0.79060985  0.74425054  0.00607181    -0.05200
C1642       C  0.75795614  0.74286497  0.51183702     0.09000
C1643       C  0.73914879  0.72754112  0.54037678    -0.02600
C1644       C  0.75309240  0.71398267  0.56336123    -0.00800
C1645       C  0.78585715  0.71511174  0.55764921    -0.04500
C1646       C  0.80463027  0.73053945  0.52888159     0.02600
C1647       C  0.74305707  0.75728300  0.98762782     0.09400
C1648       C  0.70523015  0.72561064  0.54593523     0.35300
C1649       C  0.83800173  0.73167696  0.52224846     0.38700
C1650       C  0.72549203  0.73718937  0.96027900    -0.04800
C1651       C  0.71180534  0.75088703  0.93716171     0.02300
C1652       C  0.71470499  0.78456478  0.94176256    -0.04400
C1653       C  0.73159423  0.80422230  0.96978000    -0.00700
C1654       C  0.74616927  0.79081067  0.99231394    -0.03200
C1655       C  0.72154753  0.70228460  0.95602587     0.36000
C1656       C  0.73312140  0.83778621  0.97613620     0.39700
C1657       C  0.69586956  0.73059003  0.90820404     0.38800
C1658       C  0.76453788  0.81154170  0.02039432     0.35700
C1659       C  0.80970107  0.75975231  0.97648722     0.36400
C1660       C  0.73414775  0.70017014  0.59337512     0.39600
N1661       N  0.68317715  0.71438047  0.88512647    -0.38400
N1662       N  0.71843978  0.67445843  0.95277417    -0.40000
N1663       N  0.73427640  0.86450138  0.98124138    -0.37800
N1664       N  0.77923423  0.82806558  0.04278161    -0.40100
N1665       N  0.67819177  0.72409972  0.55024637    -0.39900
N1666       N  0.71901776  0.68925857  0.61730685    -0.37500
N1667       N  0.86460258  0.73257473  0.01703217    -0.38600
N1668       N  0.82478054  0.77197934  0.95279067    -0.40300
C1669       C  0.69946376  0.74731511  0.75599309    -0.05200
C1670       C  0.73282315  0.74970467  0.75972388     0.09000
C1671       C  0.75406251  0.76745094  0.78645678    -0.02600
C1672       C  0.74145707  0.78154434  0.81016401    -0.00800
C1673       C  0.70839148  0.78026854  0.80614500    -0.04500
C1674       C  0.68764079  0.76336623  0.77860461     0.02600
C1675       C  0.74638097  0.73442532  0.73507278     0.09400
C1676       C  0.78926293  0.77165607  0.78921907     0.35300
C1677       C  0.65470400  0.76338719  0.77277580     0.38700
C1678       C  0.76217406  0.75355577  0.70680877    -0.04800
C1679       C  0.77719806  0.74050707  0.68442636     0.02300
C1680       C  0.77748241  0.70855585  0.69063944    -0.04400
C1681       C  0.76106589  0.68914319  0.71891730    -0.00700
C1682       C  0.74525021  0.70193064  0.74082907    -0.03200
C1683       C  0.76334699  0.78703684  0.70103170     0.36000
C1684       C  0.76137333  0.65664748  0.72620207     0.39700
C1685       C  0.79136852  0.75969514  0.65458015     0.38800
C1686       C  0.72795860  0.68183427  0.76953955     0.35700
C1687       C  0.67737346  0.72832191  0.72876532     0.36400
C1688       C  0.76211832  0.79592986  0.83925734     0.39600
N1689       N  0.80257317  0.77495155  0.63077159    -0.38400
N1690       N  0.76427468  0.81374428  0.69651042    -0.40000
N1691       N  0.76160627  0.63072694  0.73202011    -0.37800
N1692       N  0.71406783  0.66584164  0.79241837    -0.40100
N1693       N  0.81743686  0.77523541  0.79113380    -0.39900
N1694       N  0.77848730  0.80716445  0.86251933    -0.37500
N1695       N  0.62851821  0.76355179  0.76805586    -0.38600
N1696       N  0.65973937  0.71302734  0.70710795    -0.40300
loop_ 
_geom_bond_atom_site_label_1 
_geom_bond_atom_site_label_2 
_geom_bond_distance 
_geom_bond_site_symmetry_2 
_ccdc_geom_bond_type 
O1           C16   1.260       .  A
O1           Al9   1.893       .  S
C2           O12   1.258       .  A
C2            O3   1.260       .  A
C2          C168   1.489       .  S
O3           Al5   1.904       .  S
O4            C6   1.257       .  A
O4           Al5   1.887       .  S
Al5          O13   1.887       .  S
Al5          O15   1.902       .  S
Al5          O14   1.792       .  S
C6           O19   1.260       .  A
C6           C49   1.488       .  S
O7           C17   1.260       .  A
O7           Al9   1.893       .  S
O8           C21   1.258       .  A
O8          Al18   1.888       .  S
Al9          O22   1.908       .  S
Al9          O19   1.907       .  S
Al9          O14   1.795       .  S
O10          C17   1.260       .  A
O10         Al18   1.903       .  S
O11          C20   1.260       .  A
O11         Al18   1.901       .  S
O12         Al18   1.885       .  S
O13          C20   1.257       .  A
O14         Al18   1.792       .  S
O15          C16   1.261       .  A
C16          C77   1.498       .  S
C17         C140   1.495       .  S
C20         C189   1.491       .  S
C21          O22   1.261       .  A
C21         C112   1.489       .  S
O23          C38   1.260       .  A
O23         Al31   1.892       .  S
C24          O34   1.258       .  A
C24          O25   1.260       .  A
C24         C161   1.488       .  S
O25         Al27   1.903       .  S
O26          C28   1.259       .  A
O26         Al27   1.891       .  S
Al27         O35   1.887       .  S
Al27         O37   1.904       .  S
Al27         O36   1.791       .  S
C28          O41   1.261       .  A
C28         C133   1.490       .  S
O29          C39   1.260       .  A
O29         Al31   1.890       .  S
O30          C43   1.258       .  A
O30         Al40   1.891       .  S
Al31         O44   1.907       .  S
Al31         O41   1.909       .  S
Al31         O36   1.791       .  S
O32          C39   1.262       .  A
O32         Al40   1.908       .  S
O33          C42   1.261       .  A
O33         Al40   1.905       .  S
O34         Al40   1.888       .  S
O35          C42   1.258       .  A
O36         Al40   1.791       .  S
O37          C38   1.261       .  A
C38         C105   1.496       .  S
C39          C56   1.490       .  S
C42         C196   1.489       .  S
C43          O44   1.261       .  A
C43          C84   1.495       .  S
C45          C46   1.411       .  A
C45          C50   1.409       .  A
C45         C911   1.452   1_455  S
C46        C1111   1.498   1_455  S
C46         C259   1.412       .  A
C47         C258   1.412       .  A
C47         C260   1.411       .  A
C47          C52   1.451   1_556  S
C48          C49   1.416       .  A
C48         C259   1.411       .  A
C48          C64   1.452       .  S
C49          C50   1.417       .  A
C50          C53   1.452       .  S
C51        C1106   1.498   1_554  S
C51          C54   1.411       .  A
C51          C58   1.411       .  A
C52          N69   1.157       .  T
C53          N71   1.157       .  T
C54          C55   1.410       .  A
C54         C271   1.451   1_554  S
C55          C56   1.416       .  A
C55          C61   1.452       .  S
C56          C57   1.419       .  A
C57          C58   1.410       .  A
C57          C60   1.452       .  S
C58         C910   1.452       .  S
C59         C266   1.451       .  S
C59          N66   1.157       .  T
C60          N67   1.157       .  T
C61          N65   1.158       .  T
C62         C906   1.452   1_455  S
C62          N68   1.157       .  T
C63         C893   1.452       .  S
C63          N72   1.157       .  T
C64          N70   1.158       .  T
C73          C74   1.409       .  A
C73          C78   1.413       .  A
C73          C91   1.451       .  S
C74         C927   1.495   1_455  S
C74          C75   1.407       .  A
C75          C76   1.409       .  A
C75          C80   1.452   1_455  S
C76          C77   1.423       .  A
C76          C92   1.452       .  S
C77          C78   1.421       .  A
C78          C81   1.452       .  S
C79         C922   1.495       .  S
C79          C82   1.407       .  A
C79          C86   1.409       .  A
C80          N97   1.157       .  T
C81          N99   1.158       .  T
C82          C83   1.409       .  A
C82         C935   1.452       .  S
C83          C84   1.421       .  A
C83          C89   1.452       .  S
C84          C85   1.419       .  A
C85          C86   1.412       .  A
C85          C88   1.452       .  S
C86          C90   1.451       .  S
C87         C930   1.452   1_455  S
C87          N94   1.157       .  T
C88          N95   1.158       .  T
C89          N93   1.158       .  T
C90          N96   1.157       .  T
C91         N100   1.157       .  T
C92          N98   1.158       .  T
C101        C102   1.410       .  A
C101        C106   1.411       .  A
C101        C119   1.451       .  S
C102        C531   1.496   1_545  S
C102        C103   1.408       .  A
C103        C104   1.409       .  A
C103        C532   1.452   1_545  S
C104        C105   1.422       .  A
C104        C120   1.452       .  S
C105        C106   1.419       .  A
C106        C109   1.452       .  S
C107        C526   1.496       .  S
C107        C110   1.410       .  A
C107        C114   1.411       .  A
C108        C527   1.452       .  S
C108        N125   1.157       .  T
C109        N127   1.157       .  T
C110        C111   1.409       .  A
C110        C115   1.452       .  S
C111        C112   1.418       .  A
C111        C117   1.452       .  S
C112        C113   1.417       .  A
C113        C114   1.411       .  A
C113        C116   1.452       .  S
C114        C542   1.451       .  S
C115        N122   1.157       .  T
C116        N123   1.158       .  T
C117        N121   1.157       .  T
C118        C538   1.451       .  S
C118        N124   1.157       .  T
C119        N128   1.157       .  T
C120        N126   1.158       .  T
C129        C130   1.409       .  A
C129        C134   1.410       .  A
C129        C571   1.451   1_545  S
C130        C771   1.497   1_544  S
C130        C131   1.412       .  A
C131        C132   1.411       .  A
C131        C348   1.451   1_554  S
C132        C133   1.416       .  A
C132        C148   1.452       .  S
C133        C134   1.419       .  A
C134        C137   1.452       .  S
C135        C766   1.497       .  S
C135        C138   1.410       .  A
C135        C142   1.408       .  A
C136        C343   1.451       .  S
C136        N153   1.157       .  T
C137        N155   1.157       .  T
C138        C139   1.411       .  A
C138        C355   1.451       .  S
C139        C140   1.419       .  A
C139        C145   1.452       .  S
C140        C141   1.421       .  A
C141        C142   1.410       .  A
C141        C144   1.452       .  S
C142        C570   1.452       .  S
C143        C350   1.451   1_554  S
C143        N150   1.157       .  T
C144        N151   1.157       .  T
C145        N149   1.158       .  T
C146        C566   1.452   1_545  S
C146        N152   1.157       .  T
C147        C553   1.451       .  S
C147        N156   1.157       .  T
C148        N154   1.158       .  T
C157        C370   1.410       .  A
C157        C374   1.410       .  A
C157        C175   1.451       .  S
C158        C375   1.493   1_554  S
C158        C159   1.408       .  A
C158        C369   1.410       .  A
C159        C160   1.409       .  A
C159        C164   1.452       .  S
C160        C161   1.419       .  A
C160        C176   1.452       .  S
C161        C162   1.417       .  A
C162        C369   1.410       .  A
C162        C165   1.452       .  S
C163        C370   1.493       .  S
C163        C166   1.408       .  A
C163        C170   1.410       .  A
C164        N181   1.157       .  T
C165        N395   1.157       .  T
C166        C167   1.409       .  A
C166        C171   1.452       .  S
C167        C168   1.419       .  A
C167        C173   1.452       .  S
C168        C169   1.418       .  A
C169        C170   1.410       .  A
C169        C172   1.452       .  S
C170        C174   1.451       .  S
C171        N178   1.157       .  T
C172        N179   1.157       .  T
C173        N177   1.158       .  T
C174        N180   1.157       .  T
C175        N184   1.157       .  T
C176        N182   1.158       .  T
N183        C377   1.157       .  T
C185        C186   1.409       .  A
C185        C190   1.411       .  A
C185        C203   1.451       .  S
C186        C191   1.493       .  S
C186        C187   1.408       .  A
C187        C188   1.407       .  A
C187        C192   1.452       .  S
C188        C189   1.420       .  A
C188        C204   1.452       .  S
C189        C190   1.419       .  A
C190        C193   1.452       .  S
C191        C194   1.408       .  A
C191        C198   1.410       .  A
C192        N209   1.157       .  T
C193        N211   1.158       .  T
C194        C195   1.408       .  A
C194        C199   1.451       .  S
C195        C196   1.419       .  A
C195        C201   1.453       .  S
C196        C197   1.418       .  A
C197        C198   1.411       .  A
C197        C200   1.452       .  S
C198        C202   1.451       .  S
C199        N206   1.157       .  T
C200        N207   1.158       .  T
C201        N205   1.157       .  T
C202        N208   1.157       .  T
C203        N212   1.157       .  T
C204        N210   1.157       .  T
O213        C228   1.260       .  A
O213       Al221   1.893       .  S
C214        O224   1.258       .  A
C214        O215   1.260       .  A
C214        C380   1.489       .  S
O215       Al217   1.904       .  S
O216        C218   1.257       .  A
O216       Al217   1.887       .  S
Al217       O225   1.887       .  S
Al217       O227   1.902       .  S
Al217       O226   1.792       .  S
C218        O231   1.260       .  A
C218        C261   1.488       .  S
O219        C229   1.260       .  A
O219       Al221   1.893       .  S
O220        C233   1.258       .  A
O220       Al230   1.888       .  S
Al221       O234   1.908       .  S
Al221       O231   1.907       .  S
Al221       O226   1.794       .  S
O222        C229   1.260       .  A
O222       Al230   1.903       .  S
O223        C232   1.260       .  A
O223       Al230   1.901       .  S
O224       Al230   1.885       .  S
O225        C232   1.257       .  A
O226       Al230   1.792       .  S
O227        C228   1.261       .  A
C228        C289   1.497       .  S
C229        C352   1.495       .  S
C232        C401   1.491       .  S
C233        O234   1.261       .  A
C233        C324   1.489       .  S
O235        C250   1.260       .  A
O235       Al243   1.892       .  S
C236        O246   1.258       .  A
C236        O237   1.260       .  A
C236        C373   1.488       .  S
O237       Al239   1.903       .  S
O238        C240   1.259       .  A
O238       Al239   1.891       .  S
Al239       O247   1.887       .  S
Al239       O249   1.904       .  S
Al239       O248   1.791       .  S
C240        O253   1.261       .  A
C240        C345   1.490       .  S
O241        C251   1.260       .  A
O241       Al243   1.890       .  S
O242        C255   1.258       .  A
O242       Al252   1.891       .  S
Al243       O256   1.907       .  S
Al243       O253   1.909       .  S
Al243       O248   1.791       .  S
O244        C251   1.262       .  A
O244       Al252   1.908       .  S
O245        C254   1.261       .  A
O245       Al252   1.905       .  S
O246       Al252   1.888       .  S
O247        C254   1.258       .  A
O248       Al252   1.791       .  S
O249        C250   1.261       .  A
C250        C317   1.496       .  S
C251        C268   1.490       .  S
C254        C408   1.489       .  S
C255        O256   1.261       .  A
C255        C296   1.495       .  S
C257        C258   1.411       .  A
C257        C262   1.409       .  A
C257       C1123   1.452   1_455  S
C258        C899   1.498   1_456  S
C259        C264   1.451       .  S
C260        C261   1.416       .  A
C260        C276   1.452       .  S
C261        C262   1.417       .  A
C262        C265   1.452       .  S
C263        C894   1.498       .  S
C263        C266   1.411       .  A
C263        C270   1.410       .  A
C264        N281   1.157       .  T
C265        N283   1.157       .  T
C266        C267   1.410       .  A
C267        C268   1.416       .  A
C267        C273   1.452       .  S
C268        C269   1.419       .  A
C269        C270   1.410       .  A
C269        C272   1.452       .  S
C270       C1122   1.452       .  S
C271        N278   1.157       .  T
C272        N279   1.157       .  T
C273        N277   1.158       .  T
C274       C1118   1.452   1_455  S
C274        N280   1.157       .  T
C275       C1105   1.452       .  S
C275        N284   1.157       .  T
C276        N282   1.158       .  T
C285        C286   1.409       .  A
C285        C290   1.413       .  A
C285        C303   1.451       .  S
C286       C1139   1.495   1_455  S
C286        C287   1.407       .  A
C287        C288   1.409       .  A
C287        C292   1.452   1_455  S
C288        C289   1.422       .  A
C288        C304   1.452       .  S
C289        C290   1.421       .  A
C290        C293   1.452       .  S
C291       C1134   1.495       .  S
C291        C294   1.407       .  A
C291        C298   1.409       .  A
C292        N309   1.157       .  T
C293        N311   1.158       .  T
C294        C295   1.409       .  A
C294       C1147   1.452       .  S
C295        C296   1.421       .  A
C295        C301   1.452       .  S
C296        C297   1.419       .  A
C297        C298   1.412       .  A
C297        C300   1.452       .  S
C298        C302   1.451       .  S
C299       C1142   1.452   1_455  S
C299        N306   1.157       .  T
C300        N307   1.158       .  T
C301        N305   1.158       .  T
C302        N308   1.157       .  T
C303        N312   1.157       .  T
C304        N310   1.158       .  T
C313        C314   1.410       .  A
C313        C318   1.411       .  A
C313        C331   1.451       .  S
C314        C743   1.496   1_545  S
C314        C315   1.408       .  A
C315        C316   1.409       .  A
C315        C744   1.452   1_545  S
C316        C317   1.423       .  A
C316        C332   1.452       .  S
C317        C318   1.419       .  A
C318        C321   1.452       .  S
C319        C738   1.496       .  S
C319        C322   1.410       .  A
C319        C326   1.411       .  A
C320        C739   1.452       .  S
C320        N337   1.157       .  T
C321        N339   1.157       .  T
C322        C323   1.409       .  A
C322        C327   1.452       .  S
C323        C324   1.418       .  A
C323        C329   1.452       .  S
C324        C325   1.417       .  A
C325        C326   1.411       .  A
C325        C328   1.452       .  S
C326        C754   1.451       .  S
C327        N334   1.157       .  T
C328        N335   1.158       .  T
C329        N333   1.157       .  T
C330        C750   1.451       .  S
C330        N336   1.157       .  T
C331        N340   1.157       .  T
C332        N338   1.158       .  T
C341        C342   1.409       .  A
C341        C346   1.410       .  A
C341        C783   1.451   1_545  S
C342        C559   1.497   1_545  S
C342        C343   1.412       .  A
C343        C344   1.411       .  A
C344        C345   1.416       .  A
C344        C360   1.452       .  S
C345        C346   1.419       .  A
C346        C349   1.452       .  S
C347        C554   1.497   1_556  S
C347        C350   1.410       .  A
C347        C354   1.408       .  A
C348        N365   1.157       .  T
C349        N367   1.157       .  T
C350        C351   1.411       .  A
C351        C352   1.419       .  A
C351        C357   1.452       .  S
C352        C353   1.421       .  A
C353        C354   1.410       .  A
C353        C356   1.452       .  S
C354        C782   1.452       .  S
C355        N362   1.157       .  T
C356        N363   1.157       .  T
C357        N361   1.158       .  T
C358        C778   1.452   1_545  S
C358        N364   1.157       .  T
C359        C765   1.451       .  S
C359        N368   1.157       .  T
C360        N366   1.158       .  T
C369        C387   1.451   1_554  S
C370        C371   1.408       .  A
C371        C372   1.409       .  A
C371        C376   1.452       .  S
C372        C373   1.419       .  A
C372        C388   1.452       .  S
C373        C374   1.417       .  A
C374        C377   1.452       .  S
C375        C378   1.408       .  A
C375        C382   1.410       .  A
C376        N393   1.157       .  T
C378        C379   1.409       .  A
C378        C383   1.452       .  S
C379        C380   1.419       .  A
C379        C385   1.452       .  S
C380        C381   1.418       .  A
C381        C382   1.410       .  A
C381        C384   1.452       .  S
C382        C386   1.451   1_556  S
C383        N390   1.157       .  T
C384        N391   1.157       .  T
C385        N389   1.158       .  T
C386        N392   1.157       .  T
C387        N396   1.157       .  T
C388        N394   1.158       .  T
C397        C398   1.409       .  A
C397        C402   1.411       .  A
C397        C415   1.451       .  S
C398        C403   1.493       .  S
C398        C399   1.408       .  A
C399        C400   1.407       .  A
C399        C404   1.452       .  S
C400        C401   1.420       .  A
C400        C416   1.452       .  S
C401        C402   1.419       .  A
C402        C405   1.452       .  S
C403        C406   1.408       .  A
C403        C410   1.410       .  A
C404        N421   1.157       .  T
C405        N423   1.158       .  T
C406        C407   1.408       .  A
C406        C411   1.451       .  S
C407        C408   1.419       .  A
C407        C413   1.453       .  S
C408        C409   1.418       .  A
C409        C410   1.411       .  A
C409        C412   1.452       .  S
C410        C414   1.451       .  S
C411        N418   1.157       .  T
C412        N419   1.158       .  T
C413        N417   1.157       .  T
C414        N420   1.157       .  T
C415        N424   1.157       .  T
C416        N422   1.157       .  T
O425        C440   1.260       .  A
O425       Al433   1.893       .  S
C426        O436   1.258       .  A
C426        O427   1.260       .  A
C426        C592   1.489       .  S
O427       Al429   1.904       .  S
O428        C430   1.257       .  A
O428       Al429   1.887       .  S
Al429       O437   1.887       .  S
Al429       O439   1.902       .  S
Al429       O438   1.792       .  S
C430        O443   1.260       .  A
C430        C473   1.488       .  S
O431        C441   1.260       .  A
O431       Al433   1.893       .  S
O432        C445   1.258       .  A
O432       Al442   1.888       .  S
Al433       O446   1.908       .  S
Al433       O443   1.907       .  S
Al433       O438   1.794       .  S
O434        C441   1.260       .  A
O434       Al442   1.903       .  S
O435        C444   1.260       .  A
O435       Al442   1.901       .  S
O436       Al442   1.885       .  S
O437        C444   1.257       .  A
O438       Al442   1.792       .  S
O439        C440   1.261       .  A
C440        C501   1.497       .  S
C441        C564   1.495       .  S
C444        C613   1.491       .  S
C445        O446   1.261       .  A
C445        C536   1.489       .  S
O447        C462   1.260       .  A
O447       Al455   1.892       .  S
C448        O458   1.258       .  A
C448        O449   1.260       .  A
C448        C585   1.488       .  S
O449       Al451   1.903       .  S
O450        C452   1.259       .  A
O450       Al451   1.891       .  S
Al451       O459   1.887       .  S
Al451       O461   1.904       .  S
Al451       O460   1.791       .  S
C452        O465   1.261       .  A
C452        C557   1.490       .  S
O453        C463   1.260       .  A
O453       Al455   1.889       .  S
O454        C467   1.258       .  A
O454       Al464   1.891       .  S
Al455       O468   1.907       .  S
Al455       O465   1.909       .  S
Al455       O460   1.791       .  S
O456        C463   1.262       .  A
O456       Al464   1.908       .  S
O457        C466   1.262       .  A
O457       Al464   1.905       .  S
O458       Al464   1.888       .  S
O459        C466   1.258       .  A
O460       Al464   1.791       .  S
O461        C462   1.261       .  A
C462        C529   1.496       .  S
C463        C480   1.490       .  S
C466        C620   1.489       .  S
C467        O468   1.261       .  A
C467        C508   1.495       .  S
C469        C470   1.411       .  A
C469        C474   1.409       .  A
C469       C1335   1.452   1_455  S
C470       C1535   1.498   1_455  S
C470        C683   1.412       .  A
C471        C682   1.412       .  A
C471        C684   1.411       .  A
C471        C476   1.451   1_556  S
C472        C683   1.411       .  A
C472        C473   1.416       .  A
C472        C488   1.452       .  S
C473        C474   1.417       .  A
C474        C477   1.452       .  S
C475       C1530   1.498   1_554  S
C475        C478   1.411       .  A
C475        C482   1.410       .  A
C476        N493   1.157       .  T
C477        N495   1.157       .  T
C478        C479   1.410       .  A
C478        C695   1.451   1_554  S
C479        C480   1.416       .  A
C479        C485   1.452       .  S
C480        C481   1.419       .  A
C481        C482   1.410       .  A
C481        C484   1.452       .  S
C482       C1334   1.452       .  S
C483        C690   1.451       .  S
C483        N490   1.157       .  T
C484        N491   1.157       .  T
C485        N489   1.158       .  T
C486       C1330   1.452   1_455  S
C486        N492   1.157       .  T
C487       C1317   1.452       .  S
C487        N496   1.157       .  T
C488        N494   1.158       .  T
C497        C498   1.409       .  A
C497        C502   1.413       .  A
C497        C515   1.451       .  S
C498       C1351   1.495   1_455  S
C498        C499   1.407       .  A
C499        C500   1.409       .  A
C499        C504   1.452   1_455  S
C500        C501   1.422       .  A
C500        C516   1.452       .  S
C501        C502   1.421       .  A
C502        C505   1.452       .  S
C503       C1346   1.495       .  S
C503        C506   1.407       .  A
C503        C510   1.409       .  A
C504        N521   1.157       .  T
C505        N523   1.158       .  T
C506        C507   1.409       .  A
C506       C1359   1.452       .  S
C507        C508   1.421       .  A
C507        C513   1.452       .  S
C508        C509   1.419       .  A
C509        C510   1.412       .  A
C509        C512   1.452       .  S
C510        C514   1.451       .  S
C511       C1354   1.452   1_455  S
C511        N518   1.157       .  T
C512        N519   1.158       .  T
C513        N517   1.158       .  T
C514        N520   1.157       .  T
C515        N524   1.157       .  T
C516        N522   1.158       .  T
C525        C526   1.410       .  A
C525        C530   1.411       .  A
C525        C543   1.451       .  S
C526        C527   1.408       .  A
C527        C528   1.409       .  A
C528        C529   1.423       .  A
C528        C544   1.452       .  S
C529        C530   1.419       .  A
C530        C533   1.452       .  S
C531        C534   1.410       .  A
C531        C538   1.411       .  A
C532        N549   1.157       .  T
C533        N551   1.157       .  T
C534        C535   1.409       .  A
C534        C539   1.452   1_565  S
C535        C536   1.418       .  A
C535        C541   1.452       .  S
C536        C537   1.417       .  A
C537        C538   1.411       .  A
C537        C540   1.452       .  S
C539        N546   1.157       .  T
C540        N547   1.158       .  T
C541        N545   1.157       .  T
C542        N548   1.157       .  T
C543        N552   1.157       .  T
C544        N550   1.158       .  T
C553        C554   1.409       .  A
C553        C558   1.410       .  A
C554        C555   1.412       .  A
C555        C556   1.411       .  A
C555        C772   1.451   1_554  S
C556        C557   1.416       .  A
C556        C572   1.452       .  S
C557        C558   1.419       .  A
C558        C561   1.452       .  S
C559        C562   1.410       .  A
C559        C566   1.408       .  A
C560        C767   1.451       .  S
C560        N577   1.157       .  T
C561        N579   1.157       .  T
C562        C563   1.411       .  A
C562        C779   1.451       .  S
C563        C564   1.419       .  A
C563        C569   1.452       .  S
C564        C565   1.421       .  A
C565        C566   1.410       .  A
C565        C568   1.452       .  S
C567        C774   1.451   1_554  S
C567        N574   1.157       .  T
C568        N575   1.157       .  T
C569        N573   1.158       .  T
C570        N576   1.157       .  T
C571        N580   1.157       .  T
C572        N578   1.158       .  T
C581        C794   1.410       .  A
C581        C798   1.410       .  A
C581        C599   1.451       .  S
C582        C799   1.493   1_554  S
C582        C793   1.410       .  A
C582        C583   1.408       .  A
C583        C584   1.409       .  A
C583        C588   1.452       .  S
C584        C585   1.419       .  A
C584        C600   1.452       .  S
C585        C586   1.417       .  A
C586        C793   1.410       .  A
C586        C589   1.452       .  S
C587        C794   1.493       .  S
C587        C590   1.408       .  A
C587        C594   1.410       .  A
C588        N605   1.157       .  T
C589        N819   1.157       .  T
C590        C591   1.409       .  A
C590        C595   1.452       .  S
C591        C592   1.419       .  A
C591        C597   1.452       .  S
C592        C593   1.418       .  A
C593        C594   1.410       .  A
C593        C596   1.452       .  S
C594        C598   1.451       .  S
C595        N602   1.157       .  T
C596        N603   1.157       .  T
C597        N601   1.158       .  T
C598        N604   1.157       .  T
C599        N608   1.157       .  T
C600        N606   1.158       .  T
N607        C801   1.157       .  T
C609        C610   1.409       .  A
C609        C614   1.411       .  A
C609        C627   1.451       .  S
C610        C615   1.493       .  S
C610        C611   1.408       .  A
C611        C612   1.407       .  A
C611        C616   1.452       .  S
C612        C613   1.420       .  A
C612        C628   1.452       .  S
C613        C614   1.419       .  A
C614        C617   1.452       .  S
C615        C618   1.408       .  A
C615        C622   1.410       .  A
C616        N633   1.157       .  T
C617        N635   1.158       .  T
C618        C619   1.408       .  A
C618        C623   1.451       .  S
C619        C620   1.419       .  A
C619        C625   1.453       .  S
C620        C621   1.418       .  A
C621        C622   1.411       .  A
C621        C624   1.452       .  S
C622        C626   1.451       .  S
C623        N630   1.157       .  T
C624        N631   1.158       .  T
C625        N629   1.157       .  T
C626        N632   1.157       .  T
C627        N636   1.157       .  T
C628        N634   1.157       .  T
O637        C652   1.260       .  A
O637       Al645   1.893       .  S
C638        O648   1.258       .  A
C638        O639   1.260       .  A
C638        C804   1.489       .  S
O639       Al641   1.904       .  S
O640        C642   1.257       .  A
O640       Al641   1.887       .  S
Al641       O649   1.887       .  S
Al641       O651   1.902       .  S
Al641       O650   1.792       .  S
C642        O655   1.260       .  A
C642        C685   1.488       .  S
O643        C653   1.260       .  A
O643       Al645   1.893       .  S
O644        C657   1.258       .  A
O644       Al654   1.888       .  S
Al645       O658   1.908       .  S
Al645       O655   1.907       .  S
Al645       O650   1.795       .  S
O646        C653   1.260       .  A
O646       Al654   1.903       .  S
O647        C656   1.260       .  A
O647       Al654   1.901       .  S
O648       Al654   1.885       .  S
O649        C656   1.257       .  A
O650       Al654   1.792       .  S
O651        C652   1.261       .  A
C652        C713   1.497       .  S
C653        C776   1.495       .  S
C656        C825   1.491       .  S
C657        O658   1.261       .  A
C657        C748   1.489       .  S
O659        C674   1.260       .  A
O659       Al667   1.892       .  S
C660        O670   1.258       .  A
C660        O661   1.260       .  A
C660        C797   1.488       .  S
O661       Al663   1.903       .  S
O662        C664   1.259       .  A
O662       Al663   1.891       .  S
Al663       O671   1.887       .  S
Al663       O673   1.904       .  S
Al663       O672   1.791       .  S
C664        O677   1.261       .  A
C664        C769   1.490       .  S
O665        C675   1.260       .  A
O665       Al667   1.890       .  S
O666        C679   1.258       .  A
O666       Al676   1.891       .  S
Al667       O680   1.907       .  S
Al667       O677   1.909       .  S
Al667       O672   1.791       .  S
O668        C675   1.262       .  A
O668       Al676   1.908       .  S
O669        C678   1.261       .  A
O669       Al676   1.905       .  S
O670       Al676   1.888       .  S
O671        C678   1.258       .  A
O672       Al676   1.791       .  S
O673        C674   1.261       .  A
C674        C741   1.496       .  S
C675        C692   1.490       .  S
C678        C832   1.489       .  S
C679        O680   1.261       .  A
C679        C720   1.495       .  S
C681        C682   1.411       .  A
C681        C686   1.409       .  A
C681       C1547   1.452   1_455  S
C682       C1323   1.498   1_456  S
C683        C688   1.451       .  S
C684        C685   1.416       .  A
C684        C700   1.452       .  S
C685        C686   1.417       .  A
C686        C689   1.452       .  S
C687       C1318   1.498       .  S
C687        C690   1.411       .  A
C687        C694   1.411       .  A
C688        N705   1.157       .  T
C689        N707   1.157       .  T
C690        C691   1.410       .  A
C691        C692   1.416       .  A
C691        C697   1.452       .  S
C692        C693   1.419       .  A
C693        C694   1.410       .  A
C693        C696   1.452       .  S
C694       C1546   1.452       .  S
C695        N702   1.157       .  T
C696        N703   1.157       .  T
C697        N701   1.158       .  T
C698       C1542   1.452   1_455  S
C698        N704   1.157       .  T
C699       C1529   1.452       .  S
C699        N708   1.157       .  T
C700        N706   1.158       .  T
C709        C710   1.409       .  A
C709        C714   1.413       .  A
C709        C727   1.451       .  S
C710       C1563   1.495   1_455  S
C710        C711   1.407       .  A
C711        C712   1.409       .  A
C711        C716   1.452   1_455  S
C712        C713   1.422       .  A
C712        C728   1.452       .  S
C713        C714   1.421       .  A
C714        C717   1.452       .  S
C715       C1558   1.495       .  S
C715        C718   1.407       .  A
C715        C722   1.409       .  A
C716        N733   1.157       .  T
C717        N735   1.158       .  T
C718        C719   1.409       .  A
C718       C1571   1.452       .  S
C719        C720   1.421       .  A
C719        C725   1.452       .  S
C720        C721   1.419       .  A
C721        C722   1.412       .  A
C721        C724   1.452       .  S
C722        C726   1.451       .  S
C723       C1566   1.452   1_455  S
C723        N730   1.157       .  T
C724        N731   1.158       .  T
C725        N729   1.158       .  T
C726        N732   1.157       .  T
C727        N736   1.157       .  T
C728        N734   1.158       .  T
C737        C738   1.410       .  A
C737        C742   1.411       .  A
C737        C755   1.451       .  S
C738        C739   1.408       .  A
C739        C740   1.409       .  A
C740        C741   1.422       .  A
C740        C756   1.452       .  S
C741        C742   1.419       .  A
C742        C745   1.452       .  S
C743        C746   1.410       .  A
C743        C750   1.411       .  A
C744        N761   1.157       .  T
C745        N763   1.157       .  T
C746        C747   1.409       .  A
C746        C751   1.452   1_565  S
C747        C748   1.418       .  A
C747        C753   1.452       .  S
C748        C749   1.417       .  A
C749        C750   1.411       .  A
C749        C752   1.452       .  S
C751        N758   1.157       .  T
C752        N759   1.158       .  T
C753        N757   1.157       .  T
C754        N760   1.157       .  T
C755        N764   1.157       .  T
C756        N762   1.158       .  T
C765        C766   1.409       .  A
C765        C770   1.410       .  A
C766        C767   1.412       .  A
C767        C768   1.411       .  A
C768        C769   1.416       .  A
C768        C784   1.452       .  S
C769        C770   1.419       .  A
C770        C773   1.452       .  S
C771        C774   1.410       .  A
C771        C778   1.408       .  A
C772        N789   1.157       .  T
C773        N791   1.157       .  T
C774        C775   1.411       .  A
C775        C776   1.419       .  A
C775        C781   1.452       .  S
C776        C777   1.421       .  A
C777        C778   1.410       .  A
C777        C780   1.452       .  S
C779        N786   1.157       .  T
C780        N787   1.157       .  T
C781        N785   1.158       .  T
C782        N788   1.157       .  T
C783        N792   1.157       .  T
C784        N790   1.158       .  T
C793        C811   1.451   1_554  S
C794        C795   1.408       .  A
C795        C796   1.409       .  A
C795        C800   1.452       .  S
C796        C797   1.419       .  A
C796        C812   1.452       .  S
C797        C798   1.417       .  A
C798        C801   1.452       .  S
C799        C802   1.408       .  A
C799        C806   1.410       .  A
C800        N817   1.157       .  T
C802        C803   1.409       .  A
C802        C807   1.452       .  S
C803        C804   1.419       .  A
C803        C809   1.452       .  S
C804        C805   1.418       .  A
C805        C806   1.410       .  A
C805        C808   1.452       .  S
C806        C810   1.451   1_556  S
C807        N814   1.157       .  T
C808        N815   1.157       .  T
C809        N813   1.158       .  T
C810        N816   1.157       .  T
C811        N820   1.157       .  T
C812        N818   1.158       .  T
C821        C822   1.409       .  A
C821        C826   1.411       .  A
C821        C839   1.451       .  S
C822        C827   1.493       .  S
C822        C823   1.408       .  A
C823        C824   1.407       .  A
C823        C828   1.452       .  S
C824        C825   1.420       .  A
C824        C840   1.452       .  S
C825        C826   1.419       .  A
C826        C829   1.452       .  S
C827        C830   1.408       .  A
C827        C834   1.410       .  A
C828        N845   1.157       .  T
C829        N847   1.158       .  T
C830        C831   1.408       .  A
C830        C835   1.451       .  S
C831        C832   1.419       .  A
C831        C837   1.453       .  S
C832        C833   1.418       .  A
C833        C834   1.411       .  A
C833        C836   1.452       .  S
C834        C838   1.451       .  S
C835        N842   1.157       .  T
C836        N843   1.158       .  T
C837        N841   1.157       .  T
C838        N844   1.157       .  T
C839        N848   1.157       .  T
C840        N846   1.157       .  T
O849        C864   1.260       .  A
O849       Al857   1.893       .  S
C850        O860   1.258       .  A
C850        O851   1.260       .  A
C850       C1016   1.489       .  S
O851       Al853   1.904       .  S
O852        C854   1.257       .  A
O852       Al853   1.887       .  S
Al853       O861   1.887       .  S
Al853       O863   1.902       .  S
Al853       O862   1.792       .  S
C854        O867   1.260       .  A
C854        C897   1.488       .  S
O855        C865   1.260       .  A
O855       Al857   1.893       .  S
O856        C869   1.258       .  A
O856       Al866   1.888       .  S
Al857       O870   1.908       .  S
Al857       O867   1.907       .  S
Al857       O862   1.794       .  S
O858        C865   1.260       .  A
O858       Al866   1.903       .  S
O859        C868   1.260       .  A
O859       Al866   1.901       .  S
O860       Al866   1.885       .  S
O861        C868   1.257       .  A
O862       Al866   1.792       .  S
O863        C864   1.261       .  A
C864        C925   1.497       .  S
C865        C988   1.495       .  S
C868       C1037   1.491       .  S
C869        O870   1.261       .  A
C869        C960   1.489       .  S
O871        C886   1.260       .  A
O871       Al879   1.892       .  S
C872        O882   1.258       .  A
C872        O873   1.260       .  A
C872       C1009   1.488       .  S
O873       Al875   1.903       .  S
O874        C876   1.259       .  A
O874       Al875   1.891       .  S
Al875       O883   1.887       .  S
Al875       O885   1.904       .  S
Al875       O884   1.791       .  S
C876        O889   1.261       .  A
C876        C981   1.490       .  S
O877        C887   1.260       .  A
O877       Al879   1.890       .  S
O878        C891   1.258       .  A
O878       Al888   1.891       .  S
Al879       O892   1.907       .  S
Al879       O889   1.909       .  S
Al879       O884   1.791       .  S
O880        C887   1.262       .  A
O880       Al888   1.908       .  S
O881        C890   1.262       .  A
O881       Al888   1.905       .  S
O882       Al888   1.888       .  S
O883        C890   1.258       .  A
O884       Al888   1.791       .  S
O885        C886   1.261       .  A
C886        C953   1.496       .  S
C887        C904   1.490       .  S
C890       C1044   1.489       .  S
C891        O892   1.261       .  A
C891        C932   1.495       .  S
C893        C894   1.411       .  A
C893        C898   1.409       .  A
C894       C1107   1.412       .  A
C895       C1106   1.412       .  A
C895       C1108   1.411       .  A
C895        C900   1.451   1_556  S
C896       C1107   1.411       .  A
C896        C897   1.416       .  A
C896        C912   1.452       .  S
C897        C898   1.417       .  A
C898        C901   1.452       .  S
C899        C902   1.411       .  A
C899        C906   1.410       .  A
C900        N917   1.157       .  T
C901        N919   1.157       .  T
C902        C903   1.410       .  A
C902       C1119   1.451   1_554  S
C903        C904   1.416       .  A
C903        C909   1.452       .  S
C904        C905   1.419       .  A
C905        C906   1.410       .  A
C905        C908   1.452       .  S
C907       C1114   1.451       .  S
C907        N914   1.157       .  T
C908        N915   1.157       .  T
C909        N913   1.158       .  T
C910        N916   1.157       .  T
C911        N920   1.157       .  T
C912        N918   1.158       .  T
C921        C922   1.409       .  A
C921        C926   1.413       .  A
C921        C939   1.451       .  S
C922        C923   1.407       .  A
C923        C924   1.409       .  A
C923        C928   1.452       .  S
C924        C925   1.422       .  A
C924        C940   1.452       .  S
C925        C926   1.421       .  A
C926        C929   1.452       .  S
C927        C930   1.407       .  A
C927        C934   1.409       .  A
C928        N945   1.157       .  T
C929        N947   1.158       .  T
C930        C931   1.409       .  A
C931        C932   1.421       .  A
C931        C937   1.452       .  S
C932        C933   1.419       .  A
C933        C934   1.412       .  A
C933        C936   1.452       .  S
C934        C938   1.451       .  S
C935        N942   1.157       .  T
C936        N943   1.158       .  T
C937        N941   1.158       .  T
C938        N944   1.157       .  T
C939        N948   1.157       .  T
C940        N946   1.158       .  T
C949        C950   1.410       .  A
C949        C954   1.411       .  A
C949        C967   1.451       .  S
C950       C1379   1.496   1_545  S
C950        C951   1.408       .  A
C951        C952   1.409       .  A
C951       C1380   1.452   1_545  S
C952        C953   1.423       .  A
C952        C968   1.452       .  S
C953        C954   1.419       .  A
C954        C957   1.452       .  S
C955       C1374   1.496       .  S
C955        C958   1.410       .  A
C955        C962   1.411       .  A
C956       C1375   1.452       .  S
C956        N973   1.157       .  T
C957        N975   1.157       .  T
C958        C959   1.409       .  A
C958        C963   1.452       .  S
C959        C960   1.418       .  A
C959        C965   1.452       .  S
C960        C961   1.417       .  A
C961        C962   1.411       .  A
C961        C964   1.452       .  S
C962       C1390   1.451       .  S
C963        N970   1.157       .  T
C964        N971   1.158       .  T
C965        N969   1.157       .  T
C966       C1386   1.451       .  S
C966        N972   1.157       .  T
C967        N976   1.157       .  T
C968        N974   1.158       .  T
C977        C978   1.409       .  A
C977        C982   1.410       .  A
C977       C1419   1.451   1_545  S
C978       C1619   1.497   1_544  S
C978        C979   1.412       .  A
C979        C980   1.411       .  A
C979       C1196   1.451   1_554  S
C980        C981   1.416       .  A
C980        C996   1.452       .  S
C981        C982   1.419       .  A
C982        C985   1.452       .  S
C983       C1614   1.497       .  S
C983        C986   1.410       .  A
C983        C990   1.408       .  A
C984       C1191   1.451       .  S
C984       N1001   1.157       .  T
C985       N1003   1.157       .  T
C986        C987   1.411       .  A
C986       C1203   1.451       .  S
C987        C988   1.419       .  A
C987        C993   1.452       .  S
C988        C989   1.421       .  A
C989        C990   1.410       .  A
C989        C992   1.452       .  S
C990       C1418   1.452       .  S
C991       C1198   1.451   1_554  S
C991        N998   1.157       .  T
C992        N999   1.157       .  T
C993        N997   1.158       .  T
C994       C1414   1.452   1_545  S
C994       N1000   1.157       .  T
C995       C1401   1.451       .  S
C995       N1004   1.157       .  T
C996       N1002   1.158       .  T
C1005      C1218   1.410       .  A
C1005      C1222   1.410       .  A
C1005      C1023   1.451       .  S
C1006      C1223   1.493   1_554  S
C1006      C1217   1.410       .  A
C1006      C1007   1.408       .  A
C1007      C1008   1.409       .  A
C1007      C1012   1.452       .  S
C1008      C1009   1.419       .  A
C1008      C1024   1.452       .  S
C1009      C1010   1.417       .  A
C1010      C1217   1.410       .  A
C1010      C1013   1.452       .  S
C1011      C1218   1.493       .  S
C1011      C1014   1.408       .  A
C1011      C1018   1.410       .  A
C1012      N1029   1.157       .  T
C1013      N1243   1.157       .  T
C1014      C1015   1.409       .  A
C1014      C1019   1.452       .  S
C1015      C1016   1.419       .  A
C1015      C1021   1.452       .  S
C1016      C1017   1.418       .  A
C1017      C1018   1.410       .  A
C1017      C1020   1.452       .  S
C1018      C1022   1.451       .  S
C1019      N1026   1.157       .  T
C1020      N1027   1.157       .  T
C1021      N1025   1.158       .  T
C1022      N1028   1.157       .  T
C1023      N1032   1.157       .  T
C1024      N1030   1.158       .  T
N1031      C1225   1.157       .  T
C1033      C1034   1.409       .  A
C1033      C1038   1.411       .  A
C1033      C1051   1.451       .  S
C1034      C1039   1.493       .  S
C1034      C1035   1.408       .  A
C1035      C1036   1.407       .  A
C1035      C1040   1.452       .  S
C1036      C1037   1.420       .  A
C1036      C1052   1.452       .  S
C1037      C1038   1.419       .  A
C1038      C1041   1.452       .  S
C1039      C1042   1.408       .  A
C1039      C1046   1.410       .  A
C1040      N1057   1.157       .  T
C1041      N1059   1.158       .  T
C1042      C1043   1.408       .  A
C1042      C1047   1.451       .  S
C1043      C1044   1.419       .  A
C1043      C1049   1.453       .  S
C1044      C1045   1.418       .  A
C1045      C1046   1.411       .  A
C1045      C1048   1.452       .  S
C1046      C1050   1.451       .  S
C1047      N1054   1.157       .  T
C1048      N1055   1.158       .  T
C1049      N1053   1.157       .  T
C1050      N1056   1.157       .  T
C1051      N1060   1.157       .  T
C1052      N1058   1.157       .  T
O1061      C1076   1.260       .  A
O1061     Al1069   1.893       .  S
C1062      O1072   1.258       .  A
C1062      O1063   1.260       .  A
C1062      C1228   1.489       .  S
O1063     Al1065   1.904       .  S
O1064      C1066   1.257       .  A
O1064     Al1065   1.887       .  S
Al1065     O1073   1.887       .  S
Al1065     O1075   1.902       .  S
Al1065     O1074   1.792       .  S
C1066      O1079   1.260       .  A
C1066      C1109   1.488       .  S
O1067      C1077   1.260       .  A
O1067     Al1069   1.893       .  S
O1068      C1081   1.258       .  A
O1068     Al1078   1.888       .  S
Al1069     O1082   1.908       .  S
Al1069     O1079   1.907       .  S
Al1069     O1074   1.795       .  S
O1070      C1077   1.260       .  A
O1070     Al1078   1.903       .  S
O1071      C1080   1.260       .  A
O1071     Al1078   1.901       .  S
O1072     Al1078   1.885       .  S
O1073      C1080   1.257       .  A
O1074     Al1078   1.792       .  S
O1075      C1076   1.261       .  A
C1076      C1137   1.497       .  S
C1077      C1200   1.495       .  S
C1080      C1249   1.491       .  S
C1081      O1082   1.261       .  A
C1081      C1172   1.489       .  S
O1083      C1098   1.260       .  A
O1083     Al1091   1.892       .  S
C1084      O1094   1.258       .  A
C1084      O1085   1.260       .  A
C1084      C1221   1.488       .  S
O1085     Al1087   1.903       .  S
O1086      C1088   1.259       .  A
O1086     Al1087   1.891       .  S
Al1087     O1095   1.887       .  S
Al1087     O1097   1.904       .  S
Al1087     O1096   1.791       .  S
C1088      O1101   1.261       .  A
C1088      C1193   1.490       .  S
O1089      C1099   1.260       .  A
O1089     Al1091   1.890       .  S
O1090      C1103   1.258       .  A
O1090     Al1100   1.891       .  S
Al1091     O1104   1.907       .  S
Al1091     O1101   1.909       .  S
Al1091     O1096   1.791       .  S
O1092      C1099   1.262       .  A
O1092     Al1100   1.908       .  S
O1093      C1102   1.261       .  A
O1093     Al1100   1.905       .  S
O1094     Al1100   1.888       .  S
O1095      C1102   1.258       .  A
O1096     Al1100   1.791       .  S
O1097      C1098   1.261       .  A
C1098      C1165   1.496       .  S
C1099      C1116   1.490       .  S
C1102      C1256   1.489       .  S
C1103      O1104   1.261       .  A
C1103      C1144   1.495       .  S
C1105      C1106   1.411       .  A
C1105      C1110   1.409       .  A
C1107      C1112   1.451       .  S
C1108      C1109   1.416       .  A
C1108      C1124   1.452       .  S
C1109      C1110   1.417       .  A
C1110      C1113   1.452       .  S
C1111      C1114   1.411       .  A
C1111      C1118   1.411       .  A
C1112      N1129   1.157       .  T
C1113      N1131   1.157       .  T
C1114      C1115   1.410       .  A
C1115      C1116   1.416       .  A
C1115      C1121   1.452       .  S
C1116      C1117   1.419       .  A
C1117      C1118   1.410       .  A
C1117      C1120   1.452       .  S
C1119      N1126   1.157       .  T
C1120      N1127   1.157       .  T
C1121      N1125   1.158       .  T
C1122      N1128   1.157       .  T
C1123      N1132   1.157       .  T
C1124      N1130   1.158       .  T
C1133      C1134   1.409       .  A
C1133      C1138   1.413       .  A
C1133      C1151   1.451       .  S
C1134      C1135   1.407       .  A
C1135      C1136   1.409       .  A
C1135      C1140   1.452       .  S
C1136      C1137   1.422       .  A
C1136      C1152   1.452       .  S
C1137      C1138   1.421       .  A
C1138      C1141   1.452       .  S
C1139      C1142   1.407       .  A
C1139      C1146   1.409       .  A
C1140      N1157   1.157       .  T
C1141      N1159   1.158       .  T
C1142      C1143   1.409       .  A
C1143      C1144   1.421       .  A
C1143      C1149   1.452       .  S
C1144      C1145   1.419       .  A
C1145      C1146   1.412       .  A
C1145      C1148   1.452       .  S
C1146      C1150   1.451       .  S
C1147      N1154   1.157       .  T
C1148      N1155   1.158       .  T
C1149      N1153   1.158       .  T
C1150      N1156   1.157       .  T
C1151      N1160   1.157       .  T
C1152      N1158   1.158       .  T
C1161      C1162   1.410       .  A
C1161      C1166   1.411       .  A
C1161      C1179   1.451       .  S
C1162      C1591   1.496   1_545  S
C1162      C1163   1.408       .  A
C1163      C1164   1.409       .  A
C1163      C1592   1.452   1_545  S
C1164      C1165   1.422       .  A
C1164      C1180   1.452       .  S
C1165      C1166   1.419       .  A
C1166      C1169   1.452       .  S
C1167      C1586   1.496       .  S
C1167      C1170   1.410       .  A
C1167      C1174   1.411       .  A
C1168      C1587   1.452       .  S
C1168      N1185   1.157       .  T
C1169      N1187   1.157       .  T
C1170      C1171   1.409       .  A
C1170      C1175   1.452       .  S
C1171      C1172   1.418       .  A
C1171      C1177   1.452       .  S
C1172      C1173   1.417       .  A
C1173      C1174   1.411       .  A
C1173      C1176   1.452       .  S
C1174      C1602   1.451       .  S
C1175      N1182   1.157       .  T
C1176      N1183   1.158       .  T
C1177      N1181   1.157       .  T
C1178      C1598   1.451       .  S
C1178      N1184   1.157       .  T
C1179      N1188   1.157       .  T
C1180      N1186   1.158       .  T
C1189      C1190   1.409       .  A
C1189      C1194   1.410       .  A
C1189      C1631   1.451   1_545  S
C1190      C1407   1.497   1_545  S
C1190      C1191   1.412       .  A
C1191      C1192   1.411       .  A
C1192      C1193   1.416       .  A
C1192      C1208   1.452       .  S
C1193      C1194   1.419       .  A
C1194      C1197   1.452       .  S
C1195      C1402   1.497   1_556  S
C1195      C1198   1.410       .  A
C1195      C1202   1.408       .  A
C1196      N1213   1.157       .  T
C1197      N1215   1.157       .  T
C1198      C1199   1.411       .  A
C1199      C1200   1.419       .  A
C1199      C1205   1.452       .  S
C1200      C1201   1.421       .  A
C1201      C1202   1.410       .  A
C1201      C1204   1.452       .  S
C1202      C1630   1.452       .  S
C1203      N1210   1.157       .  T
C1204      N1211   1.157       .  T
C1205      N1209   1.158       .  T
C1206      C1626   1.452   1_545  S
C1206      N1212   1.157       .  T
C1207      C1613   1.451       .  S
C1207      N1216   1.157       .  T
C1208      N1214   1.158       .  T
C1217      C1235   1.451   1_554  S
C1218      C1219   1.408       .  A
C1219      C1220   1.409       .  A
C1219      C1224   1.452       .  S
C1220      C1221   1.419       .  A
C1220      C1236   1.452       .  S
C1221      C1222   1.417       .  A
C1222      C1225   1.452       .  S
C1223      C1226   1.408       .  A
C1223      C1230   1.410       .  A
C1224      N1241   1.157       .  T
C1226      C1227   1.409       .  A
C1226      C1231   1.452       .  S
C1227      C1228   1.419       .  A
C1227      C1233   1.452       .  S
C1228      C1229   1.418       .  A
C1229      C1230   1.410       .  A
C1229      C1232   1.452       .  S
C1230      C1234   1.451   1_556  S
C1231      N1238   1.157       .  T
C1232      N1239   1.157       .  T
C1233      N1237   1.158       .  T
C1234      N1240   1.157       .  T
C1235      N1244   1.157       .  T
C1236      N1242   1.158       .  T
C1245      C1246   1.409       .  A
C1245      C1250   1.411       .  A
C1245      C1263   1.451       .  S
C1246      C1251   1.493       .  S
C1246      C1247   1.408       .  A
C1247      C1248   1.407       .  A
C1247      C1252   1.452       .  S
C1248      C1249   1.420       .  A
C1248      C1264   1.452       .  S
C1249      C1250   1.419       .  A
C1250      C1253   1.452       .  S
C1251      C1254   1.408       .  A
C1251      C1258   1.410       .  A
C1252      N1269   1.157       .  T
C1253      N1271   1.158       .  T
C1254      C1255   1.408       .  A
C1254      C1259   1.451       .  S
C1255      C1256   1.419       .  A
C1255      C1261   1.453       .  S
C1256      C1257   1.418       .  A
C1257      C1258   1.411       .  A
C1257      C1260   1.452       .  S
C1258      C1262   1.451       .  S
C1259      N1266   1.157       .  T
C1260      N1267   1.158       .  T
C1261      N1265   1.157       .  T
C1262      N1268   1.157       .  T
C1263      N1272   1.157       .  T
C1264      N1270   1.157       .  T
O1273      C1288   1.260       .  A
O1273     Al1281   1.893       .  S
C1274      O1284   1.258       .  A
C1274      O1275   1.260       .  A
C1274      C1440   1.489       .  S
O1275     Al1277   1.904       .  S
O1276      C1278   1.257       .  A
O1276     Al1277   1.887       .  S
Al1277     O1285   1.887       .  S
Al1277     O1287   1.902       .  S
Al1277     O1286   1.792       .  S
C1278      O1291   1.260       .  A
C1278      C1321   1.488       .  S
O1279      C1289   1.260       .  A
O1279     Al1281   1.893       .  S
O1280      C1293   1.258       .  A
O1280     Al1290   1.888       .  S
Al1281     O1294   1.908       .  S
Al1281     O1291   1.907       .  S
Al1281     O1286   1.795       .  S
O1282      C1289   1.260       .  A
O1282     Al1290   1.903       .  S
O1283      C1292   1.260       .  A
O1283     Al1290   1.901       .  S
O1284     Al1290   1.885       .  S
O1285      C1292   1.257       .  A
O1286     Al1290   1.792       .  S
O1287      C1288   1.261       .  A
C1288      C1349   1.498       .  S
C1289      C1412   1.495       .  S
C1292      C1461   1.491       .  S
C1293      O1294   1.261       .  A
C1293      C1384   1.489       .  S
O1295      C1310   1.260       .  A
O1295     Al1303   1.892       .  S
C1296      O1306   1.258       .  A
C1296      O1297   1.260       .  A
C1296      C1433   1.488       .  S
O1297     Al1299   1.903       .  S
O1298      C1300   1.259       .  A
O1298     Al1299   1.891       .  S
Al1299     O1307   1.887       .  S
Al1299     O1309   1.904       .  S
Al1299     O1308   1.791       .  S
C1300      O1313   1.261       .  A
C1300      C1405   1.490       .  S
O1301      C1311   1.260       .  A
O1301     Al1303   1.890       .  S
O1302      C1315   1.258       .  A
O1302     Al1312   1.891       .  S
Al1303     O1316   1.907       .  S
Al1303     O1313   1.909       .  S
Al1303     O1308   1.791       .  S
O1304      C1311   1.262       .  A
O1304     Al1312   1.908       .  S
O1305      C1314   1.261       .  A
O1305     Al1312   1.905       .  S
O1306     Al1312   1.888       .  S
O1307      C1314   1.258       .  A
O1308     Al1312   1.791       .  S
O1309      C1310   1.261       .  A
C1310      C1377   1.496       .  S
C1311      C1328   1.490       .  S
C1314      C1468   1.489       .  S
C1315      O1316   1.261       .  A
C1315      C1356   1.495       .  S
C1317      C1318   1.411       .  A
C1317      C1322   1.409       .  A
C1318      C1531   1.412       .  A
C1319      C1530   1.412       .  A
C1319      C1532   1.411       .  A
C1319      C1324   1.451   1_556  S
C1320      C1531   1.411       .  A
C1320      C1321   1.416       .  A
C1320      C1336   1.452       .  S
C1321      C1322   1.417       .  A
C1322      C1325   1.452       .  S
C1323      C1326   1.411       .  A
C1323      C1330   1.411       .  A
C1324      N1341   1.157       .  T
C1325      N1343   1.157       .  T
C1326      C1327   1.410       .  A
C1326      C1543   1.451   1_554  S
C1327      C1328   1.416       .  A
C1327      C1333   1.452       .  S
C1328      C1329   1.419       .  A
C1329      C1330   1.410       .  A
C1329      C1332   1.452       .  S
C1331      C1538   1.451       .  S
C1331      N1338   1.157       .  T
C1332      N1339   1.157       .  T
C1333      N1337   1.158       .  T
C1334      N1340   1.157       .  T
C1335      N1344   1.157       .  T
C1336      N1342   1.158       .  T
C1345      C1346   1.409       .  A
C1345      C1350   1.413       .  A
C1345      C1363   1.451       .  S
C1346      C1347   1.407       .  A
C1347      C1348   1.409       .  A
C1347      C1352   1.452       .  S
C1348      C1349   1.423       .  A
C1348      C1364   1.452       .  S
C1349      C1350   1.421       .  A
C1350      C1353   1.452       .  S
C1351      C1354   1.407       .  A
C1351      C1358   1.409       .  A
C1352      N1369   1.157       .  T
C1353      N1371   1.158       .  T
C1354      C1355   1.409       .  A
C1355      C1356   1.421       .  A
C1355      C1361   1.452       .  S
C1356      C1357   1.419       .  A
C1357      C1358   1.412       .  A
C1357      C1360   1.452       .  S
C1358      C1362   1.451       .  S
C1359      N1366   1.157       .  T
C1360      N1367   1.158       .  T
C1361      N1365   1.158       .  T
C1362      N1368   1.157       .  T
C1363      N1372   1.157       .  T
C1364      N1370   1.158       .  T
C1373      C1374   1.410       .  A
C1373      C1378   1.411       .  A
C1373      C1391   1.451       .  S
C1374      C1375   1.408       .  A
C1375      C1376   1.409       .  A
C1376      C1377   1.422       .  A
C1376      C1392   1.452       .  S
C1377      C1378   1.419       .  A
C1378      C1381   1.452       .  S
C1379      C1382   1.410       .  A
C1379      C1386   1.411       .  A
C1380      N1397   1.157       .  T
C1381      N1399   1.157       .  T
C1382      C1383   1.409       .  A
C1382      C1387   1.452   1_565  S
C1383      C1384   1.418       .  A
C1383      C1389   1.452       .  S
C1384      C1385   1.417       .  A
C1385      C1386   1.411       .  A
C1385      C1388   1.452       .  S
C1387      N1394   1.157       .  T
C1388      N1395   1.158       .  T
C1389      N1393   1.157       .  T
C1390      N1396   1.157       .  T
C1391      N1400   1.157       .  T
C1392      N1398   1.158       .  T
C1401      C1402   1.409       .  A
C1401      C1406   1.410       .  A
C1402      C1403   1.412       .  A
C1403      C1404   1.411       .  A
C1403      C1620   1.451   1_554  S
C1404      C1405   1.416       .  A
C1404      C1420   1.452       .  S
C1405      C1406   1.419       .  A
C1406      C1409   1.452       .  S
C1407      C1410   1.410       .  A
C1407      C1414   1.408       .  A
C1408      C1615   1.451       .  S
C1408      N1425   1.157       .  T
C1409      N1427   1.157       .  T
C1410      C1411   1.411       .  A
C1410      C1627   1.451       .  S
C1411      C1412   1.419       .  A
C1411      C1417   1.452       .  S
C1412      C1413   1.421       .  A
C1413      C1414   1.410       .  A
C1413      C1416   1.452       .  S
C1415      C1622   1.451   1_554  S
C1415      N1422   1.157       .  T
C1416      N1423   1.157       .  T
C1417      N1421   1.158       .  T
C1418      N1424   1.157       .  T
C1419      N1428   1.157       .  T
C1420      N1426   1.158       .  T
C1429      C1642   1.410       .  A
C1429      C1646   1.410       .  A
C1429      C1447   1.451       .  S
C1430      C1647   1.493   1_554  S
C1430      C1641   1.410       .  A
C1430      C1431   1.408       .  A
C1431      C1432   1.409       .  A
C1431      C1436   1.452       .  S
C1432      C1433   1.419       .  A
C1432      C1448   1.452       .  S
C1433      C1434   1.417       .  A
C1434      C1641   1.410       .  A
C1434      C1437   1.452       .  S
C1435      C1642   1.493       .  S
C1435      C1438   1.408       .  A
C1435      C1442   1.410       .  A
C1436      N1453   1.157       .  T
C1437      N1667   1.157       .  T
C1438      C1439   1.409       .  A
C1438      C1443   1.452       .  S
C1439      C1440   1.419       .  A
C1439      C1445   1.452       .  S
C1440      C1441   1.418       .  A
C1441      C1442   1.410       .  A
C1441      C1444   1.452       .  S
C1442      C1446   1.451       .  S
C1443      N1450   1.157       .  T
C1444      N1451   1.157       .  T
C1445      N1449   1.158       .  T
C1446      N1452   1.157       .  T
C1447      N1456   1.157       .  T
C1448      N1454   1.158       .  T
N1455      C1649   1.157       .  T
C1457      C1458   1.409       .  A
C1457      C1462   1.411       .  A
C1457      C1475   1.451       .  S
C1458      C1463   1.493       .  S
C1458      C1459   1.408       .  A
C1459      C1460   1.407       .  A
C1459      C1464   1.452       .  S
C1460      C1461   1.420       .  A
C1460      C1476   1.452       .  S
C1461      C1462   1.419       .  A
C1462      C1465   1.452       .  S
C1463      C1466   1.408       .  A
C1463      C1470   1.410       .  A
C1464      N1481   1.157       .  T
C1465      N1483   1.158       .  T
C1466      C1467   1.408       .  A
C1466      C1471   1.451       .  S
C1467      C1468   1.419       .  A
C1467      C1473   1.453       .  S
C1468      C1469   1.418       .  A
C1469      C1470   1.411       .  A
C1469      C1472   1.452       .  S
C1470      C1474   1.451       .  S
C1471      N1478   1.157       .  T
C1472      N1479   1.158       .  T
C1473      N1477   1.157       .  T
C1474      N1480   1.157       .  T
C1475      N1484   1.157       .  T
C1476      N1482   1.157       .  T
O1485      C1500   1.260       .  A
O1485     Al1493   1.893       .  S
C1486      O1496   1.258       .  A
C1486      O1487   1.260       .  A
C1486      C1652   1.489       .  S
O1487     Al1489   1.904       .  S
O1488      C1490   1.257       .  A
O1488     Al1489   1.887       .  S
Al1489     O1497   1.887       .  S
Al1489     O1499   1.902       .  S
Al1489     O1498   1.792       .  S
C1490      O1503   1.260       .  A
C1490      C1533   1.488       .  S
O1491      C1501   1.260       .  A
O1491     Al1493   1.892       .  S
O1492      C1505   1.258       .  A
O1492     Al1502   1.888       .  S
Al1493     O1506   1.908       .  S
Al1493     O1503   1.907       .  S
Al1493     O1498   1.794       .  S
O1494      C1501   1.260       .  A
O1494     Al1502   1.903       .  S
O1495      C1504   1.260       .  A
O1495     Al1502   1.901       .  S
O1496     Al1502   1.885       .  S
O1497      C1504   1.257       .  A
O1498     Al1502   1.792       .  S
O1499      C1500   1.261       .  A
C1500      C1561   1.497       .  S
C1501      C1624   1.495       .  S
C1504      C1673   1.491       .  S
C1505      O1506   1.261       .  A
C1505      C1596   1.489       .  S
O1507      C1522   1.260       .  A
O1507     Al1515   1.892       .  S
C1508      O1518   1.258       .  A
C1508      O1509   1.260       .  A
C1508      C1645   1.488       .  S
O1509     Al1511   1.903       .  S
O1510      C1512   1.259       .  A
O1510     Al1511   1.891       .  S
Al1511     O1519   1.887       .  S
Al1511     O1521   1.904       .  S
Al1511     O1520   1.791       .  S
C1512      O1525   1.261       .  A
C1512      C1617   1.490       .  S
O1513      C1523   1.260       .  A
O1513     Al1515   1.890       .  S
O1514      C1527   1.258       .  A
O1514     Al1524   1.891       .  S
Al1515     O1528   1.907       .  S
Al1515     O1525   1.909       .  S
Al1515     O1520   1.791       .  S
O1516      C1523   1.262       .  A
O1516     Al1524   1.908       .  S
O1517      C1526   1.262       .  A
O1517     Al1524   1.905       .  S
O1518     Al1524   1.888       .  S
O1519      C1526   1.258       .  A
O1520     Al1524   1.791       .  S
O1521      C1522   1.261       .  A
C1522      C1589   1.496       .  S
C1523      C1540   1.490       .  S
C1526      C1680   1.489       .  S
C1527      O1528   1.261       .  A
C1527      C1568   1.495       .  S
C1529      C1530   1.411       .  A
C1529      C1534   1.409       .  A
C1531      C1536   1.451       .  S
C1532      C1533   1.416       .  A
C1532      C1548   1.452       .  S
C1533      C1534   1.417       .  A
C1534      C1537   1.452       .  S
C1535      C1538   1.411       .  A
C1535      C1542   1.410       .  A
C1536      N1553   1.157       .  T
C1537      N1555   1.157       .  T
C1538      C1539   1.410       .  A
C1539      C1540   1.416       .  A
C1539      C1545   1.452       .  S
C1540      C1541   1.419       .  A
C1541      C1542   1.410       .  A
C1541      C1544   1.452       .  S
C1543      N1550   1.157       .  T
C1544      N1551   1.157       .  T
C1545      N1549   1.158       .  T
C1546      N1552   1.157       .  T
C1547      N1556   1.157       .  T
C1548      N1554   1.158       .  T
C1557      C1558   1.409       .  A
C1557      C1562   1.413       .  A
C1557      C1575   1.451       .  S
C1558      C1559   1.407       .  A
C1559      C1560   1.409       .  A
C1559      C1564   1.452       .  S
C1560      C1561   1.422       .  A
C1560      C1576   1.452       .  S
C1561      C1562   1.421       .  A
C1562      C1565   1.452       .  S
C1563      C1566   1.407       .  A
C1563      C1570   1.409       .  A
C1564      N1581   1.157       .  T
C1565      N1583   1.158       .  T
C1566      C1567   1.409       .  A
C1567      C1568   1.421       .  A
C1567      C1573   1.452       .  S
C1568      C1569   1.419       .  A
C1569      C1570   1.412       .  A
C1569      C1572   1.452       .  S
C1570      C1574   1.451       .  S
C1571      N1578   1.157       .  T
C1572      N1579   1.158       .  T
C1573      N1577   1.158       .  T
C1574      N1580   1.157       .  T
C1575      N1584   1.157       .  T
C1576      N1582   1.158       .  T
C1585      C1586   1.410       .  A
C1585      C1590   1.411       .  A
C1585      C1603   1.451       .  S
C1586      C1587   1.408       .  A
C1587      C1588   1.409       .  A
C1588      C1589   1.423       .  A
C1588      C1604   1.452       .  S
C1589      C1590   1.419       .  A
C1590      C1593   1.452       .  S
C1591      C1594   1.410       .  A
C1591      C1598   1.411       .  A
C1592      N1609   1.157       .  T
C1593      N1611   1.157       .  T
C1594      C1595   1.409       .  A
C1594      C1599   1.452   1_565  S
C1595      C1596   1.418       .  A
C1595      C1601   1.452       .  S
C1596      C1597   1.417       .  A
C1597      C1598   1.411       .  A
C1597      C1600   1.452       .  S
C1599      N1606   1.157       .  T
C1600      N1607   1.158       .  T
C1601      N1605   1.157       .  T
C1602      N1608   1.157       .  T
C1603      N1612   1.157       .  T
C1604      N1610   1.158       .  T
C1613      C1614   1.409       .  A
C1613      C1618   1.410       .  A
C1614      C1615   1.412       .  A
C1615      C1616   1.411       .  A
C1616      C1617   1.416       .  A
C1616      C1632   1.452       .  S
C1617      C1618   1.419       .  A
C1618      C1621   1.452       .  S
C1619      C1622   1.410       .  A
C1619      C1626   1.408       .  A
C1620      N1637   1.157       .  T
C1621      N1639   1.157       .  T
C1622      C1623   1.411       .  A
C1623      C1624   1.419       .  A
C1623      C1629   1.452       .  S
C1624      C1625   1.421       .  A
C1625      C1626   1.410       .  A
C1625      C1628   1.452       .  S
C1627      N1634   1.157       .  T
C1628      N1635   1.157       .  T
C1629      N1633   1.158       .  T
C1630      N1636   1.157       .  T
C1631      N1640   1.157       .  T
C1632      N1638   1.158       .  T
C1641      C1659   1.451   1_554  S
C1642      C1643   1.408       .  A
C1643      C1644   1.409       .  A
C1643      C1648   1.452       .  S
C1644      C1645   1.419       .  A
C1644      C1660   1.452       .  S
C1645      C1646   1.417       .  A
C1646      C1649   1.452       .  S
C1647      C1650   1.408       .  A
C1647      C1654   1.410       .  A
C1648      N1665   1.157       .  T
C1650      C1651   1.409       .  A
C1650      C1655   1.452       .  S
C1651      C1652   1.419       .  A
C1651      C1657   1.452       .  S
C1652      C1653   1.418       .  A
C1653      C1654   1.410       .  A
C1653      C1656   1.452       .  S
C1654      C1658   1.451   1_556  S
C1655      N1662   1.157       .  T
C1656      N1663   1.157       .  T
C1657      N1661   1.158       .  T
C1658      N1664   1.157       .  T
C1659      N1668   1.157       .  T
C1660      N1666   1.158       .  T
C1669      C1670   1.409       .  A
C1669      C1674   1.411       .  A
C1669      C1687   1.451       .  S
C1670      C1675   1.492       .  S
C1670      C1671   1.408       .  A
C1671      C1672   1.407       .  A
C1671      C1676   1.452       .  S
C1672      C1673   1.420       .  A
C1672      C1688   1.452       .  S
C1673      C1674   1.419       .  A
C1674      C1677   1.452       .  S
C1675      C1678   1.408       .  A
C1675      C1682   1.410       .  A
C1676      N1693   1.157       .  T
C1677      N1695   1.158       .  T
C1678      C1679   1.408       .  A
C1678      C1683   1.451       .  S
C1679      C1680   1.419       .  A
C1679      C1685   1.453       .  S
C1680      C1681   1.418       .  A
C1681      C1682   1.411       .  A
C1681      C1684   1.452       .  S
C1682      C1686   1.451       .  S
C1683      N1690   1.157       .  T
C1684      N1691   1.158       .  T
C1685      N1689   1.157       .  T
C1686      N1692   1.157       .  T
C1687      N1696   1.157       .  T
C1688      N1694   1.157       .  T
