geometry optimzed in LAMMPS
_audit_creation_date              2020-11-30 
_audit_creation_method            'lammps2cif' 
_symmetry_space_group_name_H-M    'P1' 
_symmetry_Int_Tables_number       1 
_symmetry_cell_setting            triclinic 
loop_ 
_symmetry_equiv_pos_as_xyz 
  x,y,z 
_cell_length_a                    38.87309195282175 
_cell_length_b                    38.985462048917064 
_cell_length_c                    59.726731298424 
_cell_angle_alpha                 89.6183056592584 
_cell_angle_beta                  92.05419945299515 
_cell_angle_gamma                 120.10216374875198 
loop_ 
_atom_site_label 
_atom_site_type_symbol 
_atom_site_fract_x 
_atom_site_fract_y 
_atom_site_fract_z 
_atom_site_charge 
O1          O  0.39846297  0.12788010  0.31796452    -0.80810
O2          O  0.28829099  0.17418664  0.37106545    -0.65500
O3          O  0.33345540  0.13515575  0.33062708    -1.12100
C4          C  0.36904867  0.24608716  0.28847179     1.06080
O5          O  0.28088329  0.21852074  0.35066301    -0.78700
O6          O  0.27056866  0.17510079  0.31043658    -0.66280
Ni7        Ni  0.36483774  0.11408669  0.34350591     1.34870
C8          C  0.28016960  0.15743168  0.29609177     0.84820
O9          O  0.28176239  0.10416001  0.36506370    -0.79240
O10         O  0.33317649  0.09414164  0.36968019    -0.89520
C11         C  0.27865533  0.20058586  0.36894480     0.84390
O12         O  0.40046055  0.16246563  0.35950688    -0.67720
O13         O  0.33565455  0.24046089  0.29481546    -0.87010
C14         C  0.38833024  0.17722134  0.37417211     0.85220
C15         C  0.29944874  0.08848496  0.37527307     1.06790
H16         H  0.36088148  0.22376614  0.34566244     0.38590
O17         O  0.33983406  0.20411380  0.33601321    -1.09670
O18         O  0.31570936  0.16412624  0.29477271    -0.66320
Ni19       Ni  0.36128944  0.18409584  0.31522320     1.26350
O20         O  0.35329788  0.17219010  0.37301802    -0.66550
O21         O  0.38813849  0.23293238  0.29967533    -0.78840
C22         C  0.39760439  0.14183125  0.29873014     0.84600
O23         O  0.38187697  0.16297824  0.29488249    -0.66020
Ni24       Ni  0.30893033  0.22589925  0.32312410     1.27450
Ni25       Ni  0.31033751  0.15422043  0.35082194     1.26060
H26         H  0.31266962  0.11475415  0.32112598     0.39150
C27         C  0.21348490  0.32954172  0.16729421     0.02370
C28         C  0.21261380  0.36545911  0.16813560     0.02370
C29         C  0.17543008  0.36439962  0.16753400     0.02370
C30         C  0.13940169  0.32717542  0.16683799     0.02370
C31         C  0.14079036  0.29154593  0.16798654     0.02370
C32         C  0.17771604  0.29281276  0.16798105     0.02370
O33         O  0.20814482  0.04513429  0.16605283    -0.74340
O34         O  0.21239283  0.14558435  0.16753774    -0.74370
O35         O  0.22620942  0.10157573  0.19812007    -0.74430
O36         O  0.19444212  0.08954733  0.13593414    -0.74480
O37         O  0.13098518  0.05913141  0.14561133    -0.74410
O38         O  0.16273458  0.07283611  0.20765488    -0.74390
O39         O  0.14867828  0.11535986  0.17678274    -0.74360
O40         O  0.14514096  0.01512034  0.17641684    -0.74430
Ni41       Ni  0.21262090  0.09643476  0.16665588     1.25410
Ni42       Ni  0.14461028  0.06430879  0.17694651     1.25360
C43         C  0.17593966  0.01356015  0.17090711     0.87840
C44         C  0.18099600  0.14676098  0.17196955     0.87770
C45         C  0.19986320  0.09040713  0.21302921     0.87800
C46         C  0.15733628  0.07359285  0.13067986     0.87970
O47         O  0.45615381  0.29275225  0.15275277    -0.74340
O48         O  0.35962194  0.29738755  0.15218261    -0.74370
O49         O  0.41539257  0.31220864  0.12178912    -0.74430
O50         O  0.39953477  0.27776952  0.18291436    -0.74480
O51         O  0.43443833  0.34072646  0.19487039    -0.74410
O52         O  0.44994927  0.37499068  0.13398593    -0.73940
O53         O  0.39407054  0.35995461  0.16475964    -0.74360
O54         O  0.49040015  0.35584565  0.16450063    -0.74430
Ni55       Ni  0.40653374  0.29274511  0.15194641     1.25410
Ni56       Ni  0.44347762  0.36011737  0.16487061     1.25360
C57         C  0.48905413  0.32357437  0.15889348     0.87840
C58         C  0.36098116  0.32921874  0.15890427     0.87770
C59         C  0.43521198  0.34943877  0.11790666     0.87800
C60         C  0.41367611  0.30364161  0.19883509     0.87970
O61         O  0.39516131  0.01178088  0.18152344    -0.74340
O62         O  0.49533821  0.10932932  0.17991941    -0.74370
O63         O  0.44001262  0.07234085  0.21110047    -0.74430
O64         O  0.45086436  0.04878640  0.15060386    -0.74480
O65         O  0.41683335  0.07755193  0.13809965    -0.74410
O66         O  0.41168003  0.10661710  0.19831733    -0.74390
O67         O  0.46394619  0.13962808  0.16548981    -0.74360
O68         O  0.36378471  0.04416225  0.17057014    -0.74430
Ni69       Ni  0.44643016  0.05934894  0.18126618     1.25410
Ni70       Ni  0.41285864  0.09305684  0.16775525     1.25360
C71         C  0.36311447  0.01203633  0.17599909     0.87840
C72         C  0.49598289  0.14035017  0.17208175     0.87770
C73         C  0.42542512  0.09476466  0.21453823     0.87800
C74         C  0.43536744  0.05886984  0.13441430     0.87970
O75         O  0.02828511  0.30600715  0.49395274    -0.74340
O76         O  0.03102307  0.20887125  0.49291947    -0.74370
O77         O  0.50823366  0.24717322  0.46348596    -0.74430
O78         O  0.05150529  0.26758211  0.52367960    -0.74480
O79         O  0.49060387  0.23555399  0.53716605    -0.74410
O80         O  0.44722533  0.21602544  0.47690107    -0.74390
O81         O  0.46995880  0.17695710  0.50632662    -0.74360
O82         O  0.46773407  0.27414464  0.50795328    -0.74430
Ni83       Ni  0.03199368  0.25862491  0.49310453     1.25410
Ni84       Ni  0.46668250  0.22446804  0.50751983     1.25360
C85         C  0.49754075  0.30602472  0.50107085     0.87840
C86         C  0.50072032  0.17692655  0.49933867     0.87770
C87         C  0.47041548  0.22824458  0.46031341     0.87800
C88         C  0.02845821  0.25489657  0.54030623     0.87970
O89         O  0.30769813  0.01888552  0.50616196    -0.74340
O90         O  0.20806065  0.01583139  0.50799429    -0.74370
O91         O  0.25065944  0.49647610  0.53645398    -0.74430
O92         O  0.26496969  0.03830165  0.47778038    -0.74480
O93         O  0.23283350  0.47736714  0.46277367    -0.74410
O94         O  0.22199907  0.43518115  0.52198925    -0.74390
O95         O  0.17705821  0.45399814  0.49410755    -0.74360
O96         O  0.27757929  0.45860790  0.49034468    -0.74430
Ni97       Ni  0.25890448  0.01950427  0.50759775     1.25410
Ni98       Ni  0.22616178  0.45396994  0.49181495     1.25360
C99         C  0.30918540  0.48948216  0.49783011     0.87840
C100        C  0.17632735  0.48450973  0.50126978     0.87770
C101        C  0.23426515  0.45900926  0.53891053     0.87800
C102        C  0.25172205  0.01509613  0.46065080     0.87970
C103        C  0.03052895  0.48860108  0.50011161     0.02370
C104        C  0.49372055  0.45268566  0.49979379     0.02370
C105        C  0.45764209  0.45357716  0.49915376     0.02370
C106        C  0.45865522  0.49057154  0.49814056     0.02370
C107        C  0.49583435  0.02644695  0.49851564     0.02370
C108        C  0.03158215  0.02529894  0.49950354     0.02370
O109        O  0.31230903  0.27228609  0.50389486    -0.74340
O110        O  0.21517540  0.17217697  0.50477441    -0.74370
O111        O  0.26759482  0.21585561  0.47289327    -0.74430
O112        O  0.26059569  0.22909429  0.53585649    -0.74480
O113        O  0.22358571  0.25690466  0.52784540    -0.74410
O114        O  0.23397584  0.24723407  0.46489107    -0.74390
O115        O  0.18086291  0.20237212  0.49545888    -0.74360
O116        O  0.27726680  0.30267905  0.49732947    -0.74430
Ni117      Ni  0.26512867  0.22120456  0.50462262     1.25410
Ni118      Ni  0.22774556  0.25344497  0.49613306     1.25360
C119        C  0.31059102  0.30388907  0.50060851     0.87840
C120        C  0.18214593  0.17092425  0.49999343     0.87770
C121        C  0.25250144  0.22975170  0.45858892     0.87800
C122        C  0.24031952  0.24470485  0.54215492     0.87970
O123        O  0.40091683  0.43524745  0.97771526    -0.80810
O124        O  0.05234375  0.03474564  0.04351994    -0.65500
O125        O  0.47195017  0.49430943  0.99782164    -1.12100
C126        C  0.05282427  0.46401133  0.95904254     1.06080
O127        O  0.10646857  0.05343606  0.02367549    -0.78700
O128        O  0.07425814  0.06066987  0.98196046    -0.66280
Ni129      Ni  0.41799229  0.46183121  0.00685622     1.34870
C130        C  0.04774675  0.04957481  0.96613364     0.84820
O131        O  0.48766209  0.03899758  0.03620843    -0.79240
O132        O  0.42652908  0.48682964  0.03612664    -0.89520
C133        C  0.08966040  0.05099746  0.04203617     0.84390
O134        O  0.42978131  0.42352795  0.02005108    -0.67720
O135        O  0.07937670  0.49782551  0.96667966    -0.87010
C136        C  0.45593062  0.43258023  0.03598620     0.85220
C137        C  0.45414617  0.01903107  0.04488897     1.06790
H138        H  0.03590839  0.46909320  0.01419276     0.38590
O139        O  0.03595033  0.49010728  0.00546556    -1.09670
O140        O  0.02008888  0.01356633  0.96371134    -0.66320
Ni141      Ni  0.49542117  0.46814295  0.98287658     1.26350
O142        O  0.48558279  0.46766653  0.03879351    -0.66550
O143        O  0.02015736  0.44329209  0.96847326    -0.78840
C144        C  0.41859855  0.43508108  0.96013042     0.84600
O145        O  0.45534907  0.44696927  0.96019925    -0.66020
Ni146      Ni  0.08884575  0.02451741  0.99538837     1.27450
Ni147      Ni  0.01197817  0.01481240  0.02089651     1.26060
H148        H  0.47346855  0.01597167  0.98910830     0.39150
O149        O  0.21440632  0.25871610  0.65020628    -0.80810
O150        O  0.12139006  0.32047999  0.70785530    -0.65500
O151        O  0.15597850  0.27413065  0.66569336    -1.12100
C152        C  0.19716164  0.38999376  0.62580911     1.06080
O153        O  0.09999224  0.35139668  0.68481965    -0.78700
O154        O  0.09675206  0.31924241  0.64217198    -0.66280
Ni155      Ni  0.18619999  0.25081527  0.67780647     1.34870
C156        C  0.10779039  0.30353495  0.62747260     0.84820
O157        O  0.10982531  0.24850859  0.70295072    -0.79240
O158        O  0.15917646  0.23547807  0.70612468    -0.89520
C159        C  0.10643793  0.34229054  0.70442396     0.84390
O160        O  0.22633503  0.30028135  0.69127926    -0.67720
O161        O  0.16526357  0.38708771  0.63288496    -0.87010
C162        C  0.21750416  0.31755917  0.70621048     0.85220
C163        C  0.12734483  0.23275667  0.71322730     1.06790
H164        H  0.18715431  0.36458457  0.67985133     0.38590
O165        O  0.16527917  0.34436673  0.67083162    -1.09670
O166        O  0.14162524  0.30593685  0.62883073    -0.66320
Ni167      Ni  0.18538127  0.32305102  0.65004600     1.26350
O168        O  0.18344649  0.31460737  0.70680815    -0.66550
O169        O  0.21349532  0.37177476  0.63468557    -0.78840
C170        C  0.21452744  0.27500014  0.63159786     0.84600
O171        O  0.20419758  0.30081521  0.62934446    -0.66020
Ni172      Ni  0.13364516  0.36624856  0.65903927     1.27450
Ni173      Ni  0.13749356  0.29645271  0.68692386     1.26060
H174        H  0.13379079  0.25457992  0.65656511     0.39150
O175        O  0.34993282  0.46917804  0.82527738    -0.74340
O176        O  0.35146313  0.37251805  0.82353152    -0.74370
O177        O  0.33017741  0.41098947  0.79415465    -0.74430
O178        O  0.37115871  0.42910117  0.85502888    -0.74480
O179        O  0.30947657  0.39629048  0.86744334    -0.74410
O180        O  0.26868720  0.37933130  0.80691410    -0.74390
O181        O  0.28948009  0.33943151  0.83544586    -0.74360
O182        O  0.28873475  0.43729449  0.83853301    -0.74430
Ni183      Ni  0.35293716  0.42189494  0.82415702     1.25410
Ni184      Ni  0.28689423  0.38717835  0.83757187     1.25360
C185        C  0.31910900  0.46915570  0.83207536     0.87840
C186        C  0.32044428  0.33992109  0.82834399     0.87770
C187        C  0.29249844  0.38944200  0.79070245     0.87800
C188        C  0.34717524  0.41451833  0.87118152     0.87970
C189        C  0.28472347  0.15420980  0.82926781     0.02370
C190        C  0.32113644  0.19114539  0.82552684     0.02370
C191        C  0.35780776  0.18992350  0.82826118     0.02370
C192        C  0.35731530  0.15341837  0.83042613     0.02370
C193        C  0.32093194  0.11755766  0.83017036     0.02370
C194        C  0.28488515  0.11776501  0.82992901     0.02370
O195        O  0.03821457  0.18374998  0.84902297    -0.74340
O196        O  0.13658702  0.18200190  0.84918160    -0.74370
O197        O  0.09479484  0.20001372  0.81853026    -0.74430
O198        O  0.08070916  0.16614325  0.87971516    -0.74480
O199        O  0.04498448  0.10336154  0.86767965    -0.74410
O200        O  0.06425924  0.13695122  0.80678275    -0.74390
O201        O  0.10267369  0.11843595  0.83843254    -0.74360
O202        O  0.00602160  0.12179414  0.83544975    -0.74430
Ni203      Ni  0.08870666  0.18528502  0.84957226     1.25410
Ni204      Ni  0.05321633  0.11788867  0.83677974     1.25360
C205        C  0.00610880  0.15322502  0.84159973     0.87840
C206        C  0.13569740  0.14990458  0.84341279     0.87770
C207        C  0.08288594  0.17408948  0.80266643     0.87800
C208        C  0.06044235  0.12900414  0.88369651     0.87970
O209        O  0.13632143  0.43869556  0.83583229    -0.74340
O210        O  0.03952379  0.33891376  0.83623046    -0.74370
O211        O  0.09512677  0.37920701  0.80571426    -0.74430
O212        O  0.08036390  0.39882175  0.86611412    -0.74480
O213        O  0.04890878  0.43019616  0.85346215    -0.74410
O214        O  0.05935490  0.40610761  0.79304689    -0.74390
O215        O  0.00530982  0.36824931  0.82485728    -0.74360
O216        O  0.10328535  0.46778172  0.82202591    -0.74430
Ni217      Ni  0.08898509  0.38782477  0.83637863     1.25410
Ni218      Ni  0.05292870  0.41911238  0.82289285     1.25360
C219        C  0.13577390  0.46954387  0.82892478     0.87840
C220        C  0.00659917  0.33724360  0.83083016     0.87770
C221        C  0.07958012  0.38915293  0.78948382     0.87800
C222        C  0.06306198  0.41874892  0.86964997     0.87970
C223        C  0.44793014  0.14418337  0.81831760    -0.21220
C224        C  0.46868016  0.15422227  0.83913296    -0.09260
C225        C  0.45291123  0.16419246  0.85713973     0.29590
C226        C  0.41628074  0.16296813  0.85437343    -0.21220
C227        C  0.39551040  0.15287809  0.83348671    -0.09280
C228        C  0.41217582  0.14432389  0.81534998     0.29600
F229        F  0.39454333  0.13728321  0.79458504    -0.19800
H230        H  0.95998450  0.13706599  0.80415472     0.17970
H231        H  0.40420517  0.17025746  0.86844850     0.17970
F232        F  0.47233358  0.17401301  0.87747076    -0.19790
C233        C  0.21267070  0.13020181  0.81940702    -0.21220
C234        C  0.24606574  0.15209416  0.83391247    -0.09260
C235        C  0.24214223  0.17160152  0.85258741     0.29590
C236        C  0.20617766  0.17092287  0.85583047    -0.21220
C237        C  0.17316078  0.14934653  0.84107898    -0.09280
C238        C  0.17660167  0.12837604  0.82306569     0.29600
F239        F  0.14572176  0.10793116  0.80814045    -0.19800
H240        H  0.21508222  0.11588963  0.80457164     0.17970
H241        H  0.20405228  0.18711573  0.86987043     0.17970
F242        F  0.27341836  0.19221107  0.86722677    -0.19790
C243        C  0.19534686  0.02066952  0.80979025    -0.21220
C244        C  0.17331398  0.00759122  0.82918895    -0.09260
C245        C  0.18834534  0.03006869  0.84909555     0.29590
C246        C  0.22491179  0.06557659  0.84946060    -0.21220
C247        C  0.24684948  0.07895341  0.82996999    -0.09280
C248        C  0.23193398  0.05605391  0.81014936     0.29600
F249        F  0.25230930  0.06862100  0.79101470    -0.19800
H250        H  0.18421927  0.00338013  0.79439900     0.17970
H251        H  0.23600657  0.08290563  0.86483300     0.17970
F252        F  0.16750389  0.01771337  0.86809116    -0.19790
C253        C  0.45908812  0.27327558  0.81239759    -0.21220
C254        C  0.46981701  0.29870912  0.83101534    -0.09260
C255        C  0.44542256  0.28698099  0.84958221     0.29590
C256        C  0.40989954  0.25041831  0.84919818    -0.21220
C257        C  0.39786593  0.22598156  0.82994424    -0.09280
C258        C  0.42328957  0.23718955  0.81174391     0.29600
F259        F  0.41186996  0.21485949  0.79269007    -0.19800
H260        H  0.47784347  0.28204798  0.79804432     0.17970
H261        H  0.39075965  0.24202399  0.86335748     0.17970
F262        F  0.45556738  0.31125777  0.86778888    -0.19790
C263        C  0.31225597  0.52171702  0.85142482    -0.21220
C264        C  0.31855907  0.50642644  0.83178962    -0.09260
C265        C  0.32521298  0.02740635  0.81174249     0.29590
C266        C  0.32514785  0.06309457  0.81130617    -0.21220
C267        C  0.32042521  0.07928188  0.83102663    -0.09280
C268        C  0.31373902  0.05833506  0.85114087     0.29600
F269        F  0.30858858  0.07330756  0.87036575    -0.19800
H270        H  0.30714275  0.50575837  0.86700027     0.17970
H271        H  0.32855114  0.07804715  0.79552411     0.17970
F272        F  0.33083220  0.01283941  0.79249096    -0.19790
C273        C  0.35577699  0.26752261  0.81879574    -0.21220
C274        C  0.32078817  0.23015479  0.82028563    -0.09260
C275        C  0.28560197  0.23208975  0.81611100     0.29590
C276        C  0.28489240  0.26705658  0.82035079    -0.21220
C277        C  0.32043473  0.30255459  0.82492361    -0.09280
C278        C  0.35617874  0.30284608  0.82239230     0.29600
F279        F  0.39170957  0.33721481  0.82260728    -0.19800
H280        H  0.38305540  0.27142857  0.81310605     0.17970
H281        H  0.25707950  0.26701899  0.81820696     0.17970
F282        F  0.25465788  0.20385572  0.80371946    -0.19790
C283        C  0.22851912  0.31447195  0.74625411    -0.21220
C284        C  0.24307324  0.33517797  0.72637346    -0.09260
C285        C  0.27528364  0.37425980  0.72740950     0.29590
C286        C  0.29217679  0.39234023  0.74838067    -0.21220
C287        C  0.27597539  0.37192557  0.76830476    -0.09280
C288        C  0.24448760  0.33247858  0.76694543     0.29600
F289        F  0.22914466  0.31098039  0.78568997    -0.19800
H290        H  0.20327571  0.28452967  0.74576399     0.17970
H291        H  0.31684441  0.42254062  0.74909370     0.17970
F292        F  0.28900219  0.39532442  0.70839380    -0.19790
C293        C  0.09337700  0.22891869  0.74858747    -0.21220
C294        C  0.11267671  0.21451235  0.73525761    -0.09260
C295        C  0.12077533  0.18565638  0.74413632     0.29590
C296        C  0.10973634  0.17167289  0.76586769    -0.21220
C297        C  0.09170231  0.18713001  0.77932637    -0.09280
C298        C  0.08345708  0.21578422  0.77052055     0.29600
F299        F  0.06566405  0.23091560  0.78309886    -0.19800
H300        H  0.08728276  0.25155386  0.74232336     0.17970
H301        H  0.11648980  0.14968381  0.77249292     0.17970
F302        F  0.13959619  0.17120075  0.73192477    -0.19790
C303        C  0.06304678  0.35691426  0.72830195    -0.21220
C304        C  0.09949979  0.35911821  0.72449953    -0.09260
C305        C  0.12996816  0.37490251  0.74127011     0.29590
C306        C  0.12327744  0.38567666  0.76202155    -0.21220
C307        C  0.08630756  0.38145992  0.76647569    -0.09280
C308        C  0.05640060  0.36813878  0.74930708     0.29600
F309        F  0.02021654  0.36366321  0.75326748    -0.19800
H310        H  0.03934041  0.34482338  0.71552034     0.17970
H311        H  0.14695278  0.39674102  0.77483972     0.17970
F312        F  0.16619989  0.37907408  0.73769991    -0.19790
C313        C  0.36007107  0.42194659  0.93476975    -0.21220
C314        C  0.39684439  0.42346714  0.93799834    -0.09260
C315        C  0.41564589  0.41987011  0.91904961     0.29590
C316        C  0.39926367  0.41729601  0.89756356    -0.21220
C317        C  0.36342260  0.41730903  0.89428836    -0.09280
C318        C  0.34331229  0.41863773  0.91312495     0.29600
F319        F  0.30846670  0.41862070  0.91059044    -0.19800
H320        H  0.34507404  0.42501863  0.94889665     0.17970
H321        H  0.41473900  0.41517973  0.88337381     0.17970
F322        F  0.45056046  0.41986618  0.92108410    -0.19790
C323        C  0.01603916  0.06488644  0.93379076    -0.21220
C324        C  0.04974312  0.07700825  0.94821703    -0.09260
C325        C  0.08572060  0.11088772  0.94269326     0.29590
C326        C  0.08840853  0.12985799  0.92221441    -0.21220
C327        C  0.05554937  0.11492229  0.90696449    -0.09280
C328        C  0.01896394  0.08323129  0.91329753     0.29600
F329        F  0.98635472  0.06891093  0.89923568    -0.19800
H330        H  0.48769242  0.03936323  0.93770060     0.17970
H331        H  0.11689251  0.15437867  0.91757103     0.17970
F332        F  0.11898567  0.12364288  0.95604213    -0.19790
C333        C  0.05401579  0.40351056  0.91032680    -0.21220
C334        C  0.06045047  0.42981708  0.89266460    -0.09260
C335        C  0.06543189  0.46737145  0.89721325     0.29590
C336        C  0.06442460  0.47851117  0.91913818    -0.21220
C337        C  0.05736779  0.45208225  0.93672722    -0.09280
C338        C  0.05169052  0.41428677  0.93227060     0.29600
F339        F  0.04440140  0.38819951  0.94909013    -0.19800
H340        H  0.05007361  0.37443305  0.90704525     0.17970
H341        H  0.06809951  0.00752858  0.92234753     0.17970
F342        F  0.07208997  0.49361783  0.88054412    -0.19790
C343        C  0.19622027  0.23483119  0.57320767    -0.21220
C344        C  0.23474080  0.24781789  0.56616750    -0.09260
C345        C  0.26702295  0.26550711  0.58187673     0.29590
C346        C  0.26073462  0.27236576  0.60406522    -0.21220
C347        C  0.22214674  0.26072788  0.61068557    -0.09280
C348        C  0.18989722  0.24082327  0.59526983     0.29600
F349        F  0.15224973  0.22888667  0.60138124    -0.19800
H350        H  0.17098933  0.22075081  0.56141788     0.17970
H351        H  0.28595133  0.28840245  0.61564897     0.17970
F352        F  0.30467869  0.27860820  0.57538566    -0.19790
C353        C  0.08363259  0.08472332  0.48008805    -0.21220
C354        C  0.07050917  0.06275320  0.49976059    -0.09260
C355        C  0.09482635  0.07592757  0.51939600     0.29590
C356        C  0.13195063  0.11064279  0.51924855    -0.21220
C357        C  0.14473381  0.13287862  0.49964766    -0.09280
C358        C  0.12038876  0.11977271  0.48004643     0.29600
F359        F  0.13250702  0.14063556  0.46082717    -0.19800
H360        H  0.06533644  0.07460403  0.46478864     0.17970
H361        H  0.15025054  0.12078104  0.53455032     0.17970
F362        F  0.08231693  0.05548369  0.53871087    -0.19790
C363        C  0.35667554  0.37079246  0.51697945    -0.21220
C364        C  0.34763524  0.34221932  0.50021692    -0.09260
C365        C  0.37427233  0.35044281  0.48306138     0.29590
C366        C  0.40912562  0.38715785  0.48238543    -0.21220
C367        C  0.41896317  0.41556212  0.49943008    -0.09280
C368        C  0.39252947  0.40694559  0.51690291     0.29600
F369        F  0.40178035  0.43305662  0.53409874    -0.19800
H370        H  0.33646330  0.36462060  0.53043118     0.17970
H371        H  0.42886130  0.39328652  0.46869428     0.17970
F372        F  0.36633396  0.32314239  0.46680156    -0.19790
C373        C  0.22836315  0.39729815  0.58918326    -0.21220
C374        C  0.21286208  0.41195065  0.60502044    -0.09260
C375        C  0.20685061  0.44363053  0.59926988     0.29590
C376        C  0.21518505  0.45953316  0.57786434    -0.21220
C377        C  0.22855501  0.44344710  0.56171168    -0.09280
C378        C  0.23574724  0.41261514  0.56754802     0.29600
F379        F  0.24969787  0.39728016  0.55235061    -0.19800
H380        H  0.23270436  0.37253972  0.59316411     0.17970
H381        H  0.20963909  0.48343969  0.57360126     0.17970
F382        F  0.19185394  0.45846718  0.61412084    -0.19790
C383        C  0.35597350  0.47255625  0.47973630    -0.21220
C384        C  0.34788186  0.49106767  0.49724255    -0.09260
C385        C  0.37684649  0.01051364  0.51448363     0.29590
C386        C  0.41244096  0.00995737  0.51465895    -0.21220
C387        C  0.42086272  0.49181246  0.49714213    -0.09280
C388        C  0.39249644  0.47359081  0.47941321     0.29600
F389        F  0.39997437  0.45651252  0.46193906    -0.19800
H390        H  0.33419949  0.45773136  0.46616953     0.17970
H391        H  0.43311433  0.02295078  0.52883918     0.17970
F392        F  0.37008981  0.02863533  0.53171532    -0.19790
C393        C  0.11622312  0.47450530  0.52025393    -0.21220
C394        C  0.13869200  0.48441468  0.50099670    -0.09260
C395        C  0.12609151  0.99624945  0.48166938     0.29590
C396        C  0.09117521  0.99809661  0.48160187    -0.21220
C397        C  0.06831814  0.48779084  0.50074437    -0.09280
C398        C  0.08104689  0.47604568  0.52014152     0.29600
F399        F  0.05962938  0.46650746  0.53893462    -0.19800
H400        H  0.12604314  0.46577724  0.53532889     0.17970
H401        H  0.08161787  0.00713393  0.46655065     0.17970
F402        F  0.14777762  0.00626173  0.46296094    -0.19790
C403        C  0.10240087  0.27870725  0.58858577    -0.21220
C404        C  0.08369065  0.28540491  0.60648260    -0.09260
C405        C  0.04486856  0.27883649  0.60275667     0.29590
C406        C  0.02616903  0.26735338  0.58135415    -0.21220
C407        C  0.04615503  0.26298286  0.56334626    -0.09280
C408        C  0.08415251  0.26793671  0.56735548     0.29600
F409        F  0.10410072  0.26287796  0.55066775    -0.19800
H410        H  0.13231812  0.28356783  0.59061092     0.17970
H411        H  0.99670033  0.26342686  0.57864942     0.17970
F412        F  0.02546078  0.28450717  0.61948630    -0.19790
C413        C  0.99366289  0.08215928  0.47839645    -0.21220
C414        C  0.49777645  0.06558157  0.49853981    -0.09260
C415        C  0.50470929  0.08673343  0.51874356     0.29590
C416        C  0.50558212  0.12303009  0.51888954    -0.21220
C417        C  0.50111960  0.13942486  0.49881072    -0.09280
C418        C  0.99587581  0.11917653  0.47846945     0.29600
F419        F  0.99214076  0.13487642  0.45880274    -0.19800
H420        H  0.98896993  0.06647522  0.46266852     0.17970
H421        H  0.50988442  0.13847078  0.53466853     0.17970
F422        F  0.50962249  0.07168207  0.53836997    -0.19790
C423        C  0.00989689  0.36831097  0.48246075    -0.21220
C424        C  0.49613151  0.34318658  0.50094532    -0.09260
C425        C  0.48033319  0.35349883  0.51883998     0.29590
C426        C  0.47953817  0.38903401  0.51843473    -0.21220
C427        C  0.49343666  0.41420755  0.49993973    -0.09280
C428        C  0.00783078  0.40307127  0.48172024     0.29600
F429        F  0.01938170  0.42561482  0.46307545    -0.19800
H430        H  0.02138543  0.36048236  0.46831517     0.17970
H431        H  0.46826253  0.39708681  0.53258581     0.17970
F432        F  0.46678372  0.32982583  0.53697498    -0.19790
C433        C  0.41780807  0.03696164  0.07185311    -0.21220
C434        C  0.44927724  0.03058938  0.06732232    -0.09260
C435        C  0.47535406  0.03276822  0.08484710     0.29590
C436        C  0.47053486  0.04197012  0.10654978    -0.21220
C437        C  0.43957892  0.04915356  0.11121754    -0.09280
C438        C  0.41312003  0.04660773  0.09365367     0.29600
F439        F  0.38222563  0.05239570  0.09761308    -0.19800
H440        H  0.39702785  0.03455308  0.05853184     0.17970
H441        H  0.99111758  0.04342087  0.11973802     0.17970
F442        F  0.00438898  0.02408235  0.08115567    -0.19790
C443        C  0.48404950  0.41224971  0.06800547    -0.21220
C444        C  0.45107115  0.40360424  0.05364553    -0.09260
C445        C  0.41337075  0.37209078  0.05914833     0.29590
C446        C  0.40862535  0.35219297  0.07952065    -0.21220
C447        C  0.44118442  0.36383208  0.09468299    -0.09280
C448        C  0.47915504  0.39296498  0.08838178     0.29600
F449        F  0.51135890  0.40397428  0.10240855    -0.19800
H450        H  0.01355545  0.43589979  0.06414649     0.17970
H451        H  0.37908547  0.32971925  0.08416548     0.17970
F452        F  0.38065898  0.36282037  0.04593050    -0.19790
C453        C  0.09890392  0.07818007  0.08045071    -0.21220
C454        C  0.11357105  0.06556080  0.06312668    -0.09260
C455        C  0.14621654  0.05999480  0.06771739     0.29590
C456        C  0.16174431  0.06418002  0.08971376    -0.21220
C457        C  0.14438775  0.07321655  0.10724773    -0.09280
C458        C  0.11378440  0.08156645  0.10234253     0.29600
F459        F  0.09779862  0.09240934  0.11880530    -0.19800
H460        H  0.07449138  0.08363584  0.07718168     0.17970
H461        H  0.18576264  0.05820704  0.09323399     0.17970
F462        F  0.16090171  0.04739749  0.05141597    -0.19790
C463        C  0.18637177  0.20617937  0.19059727    -0.21220
C464        C  0.18154384  0.18461749  0.17091447    -0.09260
C465        C  0.17571046  0.19866448  0.15024623     0.29590
C466        C  0.17393509  0.23360285  0.14938109    -0.21220
C467        C  0.17902664  0.25537708  0.16904498    -0.09280
C468        C  0.18563212  0.24167426  0.18966451     0.29600
F469        F  0.19096532  0.26248025  0.20885426    -0.19800
H470        H  0.19080377  0.19553990  0.20663305     0.17970
H471        H  0.16889717  0.24391758  0.13338613     0.17970
F472        F  0.17127193  0.17829570  0.13099386    -0.19790
C473        C  0.19291679  0.46699303  0.15240627    -0.21220
C474        C  0.17446679  0.47488638  0.16984419    -0.09260
C475        C  0.15519116  0.44579190  0.18611919     0.29590
C476        C  0.15564220  0.41008862  0.18529572    -0.21220
C477        C  0.17425659  0.40222913  0.16789423    -0.09280
C478        C  0.19215108  0.43076885  0.15114691     0.29600
F479        F  0.20850858  0.42342400  0.13342723    -0.19800
H480        H  0.20736578  0.98870929  0.13948084     0.17970
H481        H  0.14179002  0.38863589  0.19841067     0.17970
F482        F  0.13722803  0.45247397  0.20326874    -0.19790
C483        C  0.08049325  0.23466298  0.14942028    -0.21220
C484        C  0.10358836  0.25246314  0.16899699    -0.09260
C485        C  0.09175973  0.23261227  0.18947418     0.29590
C486        C  0.05736386  0.19533722  0.19027966    -0.21220
C487        C  0.03394096  0.17783043  0.17076730    -0.09280
C488        C  0.04568955  0.19768697  0.15029652     0.29600
F489        F  0.02373549  0.18099324  0.13114946    -0.19800
H490        H  0.08945650  0.24952112  0.13351633     0.17970
H491        H  0.54830251  0.18067453  0.20623517     0.17970
F492        F  0.11296875  0.24981803  0.20873676    -0.19790
C493        C  0.27789770  0.41619101  0.15274821    -0.21220
C494        C  0.25087325  0.40397150  0.17009540    -0.09260
C495        C  0.26125475  0.42759359  0.18965264     0.29590
C496        C  0.29800843  0.46285007  0.19168793    -0.21220
C497        C  0.32503847  0.47452547  0.17443483    -0.09280
C498        C  0.31479131  0.45100977  0.15494590     0.29600
F499        F  0.34038060  0.46204794  0.13794030    -0.19800
H500        H  0.27039789  0.39852602  0.13753377     0.17970
H501        H  0.30552524  0.48087988  0.20675959     0.17970
F502        F  0.23617768  0.41609332  0.20691499    -0.19790
C503        C  0.07302425  0.30990687  0.18173843    -0.21220
C504        C  0.10013884  0.32530613  0.16444100    -0.09260
C505        C  0.08965892  0.33874702  0.14485129     0.29590
C506        C  0.05301432  0.33747322  0.14287886    -0.21220
C507        C  0.02606895  0.32201719  0.16018739    -0.09280
C508        C  0.03611552  0.30792647  0.17956506     0.29600
F509        F  0.51058520  0.29318341  0.19659376    -0.19800
H510        H  0.08068865  0.29981996  0.19703901     0.17970
H511        H  0.04571223  0.34872744  0.12791097     0.17970
F512        F  0.11492475  0.35314014  0.12768815    -0.19790
C513        C  0.25974363  0.31720152  0.14514596    -0.21220
C514        C  0.25179109  0.32997329  0.16525228    -0.09260
C515        C  0.28019570  0.34296743  0.18307930     0.29590
C516        C  0.31622743  0.34373118  0.18061834    -0.21220
C517        C  0.32377562  0.33016505  0.16068034    -0.09280
C518        C  0.29516846  0.31666261  0.14295943     0.29600
F519        F  0.30192764  0.30389784  0.12339663    -0.19800
H520        H  0.23834843  0.30756597  0.13114892     0.17970
H521        H  0.33786685  0.35394043  0.19451252     0.17970
F522        F  0.27284966  0.35447098  0.20288113    -0.19790
C523        C  0.35947837  0.27471320  0.25279620    -0.21220
C524        C  0.38341078  0.26463968  0.26634881    -0.09260
C525        C  0.41856720  0.26889564  0.25749233     0.29590
C526        C  0.42861217  0.28185384  0.23547854    -0.21220
C527        C  0.40394962  0.29078002  0.22203634    -0.09280
C528        C  0.36957944  0.28756663  0.23087926     0.29600
F529        F  0.34536044  0.29619968  0.21812570    -0.19800
H530        H  0.33220429  0.27166176  0.25892084     0.17970
H531        H  0.45540119  0.28451658  0.22883938     0.17970
F532        F  0.44290376  0.25991801  0.26984685    -0.19790
C533        C  0.22125168  0.13857552  0.27016741    -0.21220
C534        C  0.25140303  0.13150686  0.27839687    -0.09260
C535        C  0.25917032  0.10505820  0.26652772     0.29590
C536        C  0.24055029  0.08991701  0.24566882    -0.21220
C537        C  0.21296705  0.09968785  0.23664438    -0.09280
C538        C  0.20197821  0.12263120  0.24939717     0.29600
F539        F  0.17556535  0.13281101  0.24080741    -0.19800
H540        H  0.21490313  0.15895934  0.27885647     0.17970
H541        H  0.24888866  0.07185030  0.23611489     0.17970
F542        F  0.28680656  0.09593293  0.27436014    -0.19790
C543        C  0.41169360  0.08110228  0.25510345    -0.21220
C544        C  0.42491943  0.10803635  0.23739390    -0.09260
C545        C  0.43554587  0.14764373  0.24133146     0.29590
C546        C  0.42986785  0.15934354  0.26219023    -0.21220
C547        C  0.41355936  0.13180069  0.27945451    -0.09280
C548        C  0.40577503  0.09279897  0.27606295     0.29600
F549        F  0.38895008  0.06515142  0.29220562    -0.19800
H550        H  0.40356711  0.05047863  0.25230125     0.17970
H551        H  0.43632737  0.18954377  0.26452078     0.17970
F552        F  0.45042605  0.17478441  0.22478601    -0.19790
C553        C  0.45097006  0.20100884  0.39831534    -0.21220
C554        C  0.41319312  0.19712181  0.39473768    -0.09260
C555        C  0.39680968  0.20742973  0.41249131     0.29590
C556        C  0.41629070  0.21847397  0.43342283    -0.21220
C557        C  0.45284698  0.22033151  0.43729604    -0.09280
C558        C  0.47084147  0.21279827  0.41938111     0.29600
F559        F  0.50635371  0.21437780  0.42257173    -0.19800
H560        H  0.46438390  0.19328212  0.38513497     0.17970
H561        H  0.40212537  0.22466422  0.44687684     0.17970
F562        F  0.36035378  0.20391554  0.41039305    -0.19790
C563        C  0.24854018  0.03310271  0.39813755    -0.21220
C564        C  0.28458322  0.06894705  0.39658777    -0.09260
C565        C  0.30825913  0.08680907  0.41593208     0.29590
C566        C  0.29637575  0.06933473  0.43657512    -0.21220
C567        C  0.26107173  0.03301422  0.43838213    -0.09280
C568        C  0.23700062  0.01472275  0.41900538     0.29600
F569        F  0.20253654  0.47958705  0.42026676    -0.19800
H570        H  0.23006578  0.01904987  0.38324645     0.17970
H571        H  0.31565542  0.08383667  0.45115583     0.17970
F572        F  0.34328189  0.12129069  0.41485462    -0.19790
C573        C  0.30247846  0.23564837  0.40482156    -0.21220
C574        C  0.27010934  0.21418757  0.38981510    -0.09260
C575        C  0.23135470  0.20066313  0.39691914     0.29590
C576        C  0.22544247  0.20760220  0.41918739    -0.21220
C577        C  0.25805048  0.22656269  0.43456880    -0.09280
C578        C  0.29659636  0.24082166  0.42709578     0.29600
F579        F  0.32859975  0.25868147  0.44152193    -0.19800
H580        H  0.33252727  0.24663364  0.39948552     0.17970
H581        H  0.19545191  0.19624384  0.42474095     0.17970
F582        F  0.19948859  0.17919951  0.38280341    -0.19790
O583        O  0.39846301  0.62788015  0.31796451    -0.80810
O584        O  0.28829098  0.67418661  0.37106544    -0.65500
O585        O  0.33345541  0.63515574  0.33062707    -1.12100
C586        C  0.36904864  0.74608714  0.28847178     1.06080
O587        O  0.28088329  0.71852072  0.35066301    -0.78700
O588        O  0.27056864  0.67510076  0.31043659    -0.66280
Ni589      Ni  0.36483778  0.61408670  0.34350589     1.34870
C590        C  0.28016958  0.65743166  0.29609177     0.84820
O591        O  0.28176241  0.60415998  0.36506370    -0.79240
O592        O  0.33317653  0.59414164  0.36968017    -0.89520
C593        C  0.27865534  0.70058583  0.36894480     0.84390
O594        O  0.40046057  0.66246565  0.35950687    -0.67720
O595        O  0.33565452  0.74046087  0.29481545    -0.87010
C596        C  0.38833024  0.67722134  0.37417211     0.85220
C597        C  0.29944878  0.58848495  0.37527306     1.06790
H598        H  0.36088147  0.72376612  0.34566243     0.38590
O599        O  0.33983405  0.70411378  0.33601320    -1.09670
O600        O  0.31570934  0.66412622  0.29477271    -0.66320
Ni601      Ni  0.36128944  0.68409582  0.31522319     1.26350
O602        O  0.35329788  0.67219008  0.37301801    -0.66550
O603        O  0.38813847  0.73293237  0.29967532    -0.78840
C604        C  0.39760440  0.64183127  0.29873013     0.84600
O605        O  0.38187696  0.66297824  0.29488248    -0.66020
Ni606      Ni  0.30893032  0.72589923  0.32312410     1.27450
Ni607      Ni  0.31033751  0.65422041  0.35082193     1.26060
H608        H  0.31266963  0.61475413  0.32112597     0.39150
C609        C  0.21348490  0.82954172  0.16729420     0.02370
C610        C  0.21261379  0.86545911  0.16813559     0.02370
C611        C  0.17543007  0.86439962  0.16753400     0.02370
C612        C  0.13940169  0.82717541  0.16683798     0.02370
C613        C  0.14079036  0.79154593  0.16798654     0.02370
C614        C  0.17771605  0.79281277  0.16798104     0.02370
O615        O  0.20814483  0.54513430  0.16605283    -0.74340
O616        O  0.21239284  0.64558436  0.16753774    -0.74370
O617        O  0.22620942  0.60157573  0.19812007    -0.74430
O618        O  0.19444215  0.58954734  0.13593414    -0.74480
O619        O  0.13098520  0.55913142  0.14561132    -0.74410
O620        O  0.16273458  0.57283611  0.20765487    -0.74390
O621        O  0.14867830  0.61535986  0.17678273    -0.74360
O622        O  0.14514097  0.51512034  0.17641683    -0.74430
Ni623      Ni  0.21262092  0.59643477  0.16665588     1.25410
Ni624      Ni  0.14461030  0.56430879  0.17694650     1.25360
C625        C  0.17593967  0.51356016  0.17090711     0.87840
C626        C  0.18099601  0.64676098  0.17196955     0.87770
C627        C  0.19986320  0.59040713  0.21302921     0.87800
C628        C  0.15733631  0.57359286  0.13067986     0.87970
O629        O  0.45615379  0.79275224  0.15275276    -0.74340
O630        O  0.35962194  0.79738756  0.15218260    -0.74370
O631        O  0.41539257  0.81220864  0.12178912    -0.74430
O632        O  0.39953475  0.77776951  0.18291435    -0.74480
O633        O  0.43443832  0.84072644  0.19487038    -0.74410
O634        O  0.44994927  0.87499068  0.13398592    -0.73940
O635        O  0.39407054  0.85995461  0.16475964    -0.74360
O636        O  0.49040015  0.85584564  0.16450062    -0.74430
Ni637      Ni  0.40653373  0.79274511  0.15194640     1.25410
Ni638      Ni  0.44347762  0.86011737  0.16487061     1.25360
C639        C  0.48905412  0.82357436  0.15889347     0.87840
C640        C  0.36098115  0.82921874  0.15890426     0.87770
C641        C  0.43521197  0.84943877  0.11790665     0.87800
C642        C  0.41367609  0.80364159  0.19883508     0.87970
O643        O  0.39516132  0.51178088  0.18152344    -0.74340
O644        O  0.49533821  0.60932931  0.17991940    -0.74370
O645        O  0.44001263  0.57234086  0.21110046    -0.74430
O646        O  0.45086436  0.54878638  0.15060386    -0.74480
O647        O  0.41683335  0.57755191  0.13809965    -0.74410
O648        O  0.41168005  0.60661710  0.19831732    -0.74390
O649        O  0.46394620  0.63962806  0.16548980    -0.74360
O650        O  0.36378471  0.54416225  0.17057013    -0.74430
Ni651      Ni  0.44643016  0.55934894  0.18126618     1.25410
Ni652      Ni  0.41285865  0.59305684  0.16775524     1.25360
C653        C  0.36311447  0.51203633  0.17599909     0.87840
C654        C  0.49598290  0.64035016  0.17208173     0.87770
C655        C  0.42542514  0.59476467  0.21453822     0.87800
C656        C  0.43536743  0.55886982  0.13441430     0.87970
O657        O  0.02828513  0.80600715  0.49395274    -0.74340
O658        O  0.03102306  0.70887124  0.49291948    -0.74370
O659        O  0.50823364  0.74717320  0.46348596    -0.74430
O660        O  0.05150530  0.76758211  0.52367960    -0.74480
O661        O  0.49060387  0.73555400  0.53716605    -0.74410
O662        O  0.44722532  0.71602544  0.47690107    -0.74390
O663        O  0.46995877  0.67695710  0.50632663    -0.74360
O664        O  0.46773407  0.77414465  0.50795328    -0.74430
Ni665      Ni  0.03199368  0.75862490  0.49310453     1.25410
Ni666      Ni  0.46668249  0.72446805  0.50751984     1.25360
C667        C  0.49754076  0.80602473  0.50107084     0.87840
C668        C  0.50072029  0.67692653  0.49933867     0.87770
C669        C  0.47041546  0.72824457  0.46031341     0.87800
C670        C  0.02845823  0.75489658  0.54030623     0.87970
O671        O  0.30769814  0.51888553  0.50616198    -0.74340
O672        O  0.20806067  0.51583142  0.50799427    -0.74370
O673        O  0.25065945  0.99647608  0.53645398    -0.74430
O674        O  0.26496974  0.53830167  0.47778038    -0.74480
O675        O  0.23283347  0.97736713  0.46277367    -0.74410
O676        O  0.22199907  0.93518112  0.52198925    -0.74390
O677        O  0.17705820  0.95399812  0.49410755    -0.74360
O678        O  0.27757928  0.95860788  0.49034466    -0.74430
Ni679      Ni  0.25890450  0.51950429  0.50759775     1.25410
Ni680      Ni  0.22616176  0.95396992  0.49181495     1.25360
C681        C  0.30918538  0.98948216  0.49783008     0.87840
C682        C  0.17632733  0.98450971  0.50126979     0.87770
C683        C  0.23426515  0.95900924  0.53891052     0.87800
C684        C  0.25172210  0.51509614  0.46065080     0.87970
C685        C  0.03052895  0.98860108  0.50011160     0.02370
C686        C  0.49372055  0.95268567  0.49979377     0.02370
C687        C  0.45764209  0.95357716  0.49915373     0.02370
C688        C  0.45865521  0.99057154  0.49814053     0.02370
C689        C  0.49583435  0.52644694  0.49851567     0.02370
C690        C  0.03158215  0.52529894  0.49950356     0.02370
O691        O  0.31230904  0.77228609  0.50389487    -0.74340
O692        O  0.21517540  0.67217697  0.50477441    -0.74370
O693        O  0.26759483  0.71585560  0.47289328    -0.74430
O694        O  0.26059569  0.72909430  0.53585650    -0.74480
O695        O  0.22358572  0.75690466  0.52784540    -0.74410
O696        O  0.23397586  0.74723407  0.46489107    -0.74390
O697        O  0.18086292  0.70237212  0.49545888    -0.74360
O698        O  0.27726681  0.80267904  0.49732947    -0.74430
Ni699      Ni  0.26512868  0.72120455  0.50462263     1.25410
Ni700      Ni  0.22774557  0.75344497  0.49613306     1.25360
C701        C  0.31059103  0.80388907  0.50060851     0.87840
C702        C  0.18214594  0.67092425  0.49999344     0.87770
C703        C  0.25250146  0.72975170  0.45858892     0.87800
C704        C  0.24031953  0.74470486  0.54215493     0.87970
O705        O  0.40091683  0.93524750  0.97771526    -0.80810
O706        O  0.05234378  0.53474564  0.04351994    -0.65500
O707        O  0.47195018  0.99430945  0.99782164    -1.12100
C708        C  0.05282426  0.96401135  0.95904254     1.06080
O709        O  0.10646859  0.55343606  0.02367548    -0.78700
O710        O  0.07425815  0.56066985  0.98196045    -0.66280
Ni711      Ni  0.41799230  0.96183125  0.00685623     1.34870
C712        C  0.04774675  0.54957478  0.96613363     0.84820
O713        O  0.48766207  0.53899755  0.03620842    -0.79240
O714        O  0.42652910  0.98682968  0.03612664    -0.89520
C715        C  0.08966043  0.55099747  0.04203616     0.84390
O716        O  0.42978131  0.92352798  0.02005108    -0.67720
O717        O  0.07937669  0.99782553  0.96667966    -0.87010
C718        C  0.45593062  0.93258025  0.03598620     0.85220
C719        C  0.45414615  0.51903103  0.04488897     1.06790
H720        H  0.03590837  0.96909321  0.01419276     0.38590
O721        O  0.03595031  0.99010729  0.00546556    -1.09670
O722        O  0.02008888  0.51356631  0.96371134    -0.66320
Ni723      Ni  0.49542117  0.96814295  0.98287659     1.26350
O724        O  0.48558279  0.96766656  0.03879352    -0.66550
O725        O  0.02015735  0.94329211  0.96847326    -0.78840
C726        C  0.41859855  0.93508111  0.96013043     0.84600
O727        O  0.45534906  0.94696927  0.96019926    -0.66020
Ni728      Ni  0.08884577  0.52451741  0.99538837     1.27450
Ni729      Ni  0.01197820  0.51481239  0.02089651     1.26060
H730        H  0.47346853  0.51597164  0.98910830     0.39150
O731        O  0.21440634  0.75871611  0.65020628    -0.80810
O732        O  0.12139005  0.82047997  0.70785530    -0.65500
O733        O  0.15597852  0.77413066  0.66569336    -1.12100
C734        C  0.19716165  0.88999376  0.62580911     1.06080
O735        O  0.09999224  0.85139667  0.68481965    -0.78700
O736        O  0.09675208  0.81924241  0.64217198    -0.66280
Ni737      Ni  0.18620001  0.75081528  0.67780648     1.34870
C738        C  0.10779041  0.80353496  0.62747260     0.84820
O739        O  0.10982532  0.74850858  0.70295071    -0.79240
O740        O  0.15917647  0.73547807  0.70612468    -0.89520
C741        C  0.10643793  0.84229053  0.70442396     0.84390
O742        O  0.22633504  0.80028135  0.69127926    -0.67720
O743        O  0.16526357  0.88708771  0.63288496    -0.87010
C744        C  0.21750416  0.81755917  0.70621048     0.85220
C745        C  0.12734484  0.73275666  0.71322730     1.06790
H746        H  0.18715431  0.86458457  0.67985134     0.38590
O747        O  0.16527917  0.84436673  0.67083163    -1.09670
O748        O  0.14162526  0.80593686  0.62883074    -0.66320
Ni749      Ni  0.18538129  0.82305104  0.65004600     1.26350
O750        O  0.18344649  0.81460737  0.70680815    -0.66550
O751        O  0.21349533  0.87177478  0.63468558    -0.78840
C752        C  0.21452746  0.77500016  0.63159787     0.84600
O753        O  0.20419761  0.80081524  0.62934447    -0.66020
Ni754      Ni  0.13364516  0.86624856  0.65903928     1.27450
Ni755      Ni  0.13749357  0.79645270  0.68692386     1.26060
H756        H  0.13379081  0.75457993  0.65656511     0.39150
O757        O  0.34993281  0.96917805  0.82527738    -0.74340
O758        O  0.35146312  0.87251805  0.82353154    -0.74370
O759        O  0.33017740  0.91098946  0.79415466    -0.74430
O760        O  0.37115870  0.92910119  0.85502889    -0.74480
O761        O  0.30947657  0.89629050  0.86744335    -0.74410
O762        O  0.26868719  0.87933130  0.80691411    -0.74390
O763        O  0.28948008  0.83943152  0.83544588    -0.74360
O764        O  0.28873475  0.93729450  0.83853301    -0.74430
Ni765      Ni  0.35293715  0.92189494  0.82415703     1.25410
Ni766      Ni  0.28689422  0.88717836  0.83757188     1.25360
C767        C  0.31910899  0.96915571  0.83207536     0.87840
C768        C  0.32044427  0.83992109  0.82834401     0.87770
C769        C  0.29249843  0.88944200  0.79070246     0.87800
C770        C  0.34717524  0.91451835  0.87118152     0.87970
C771        C  0.28472347  0.65420980  0.82926783     0.02370
C772        C  0.32113644  0.69114539  0.82552687     0.02370
C773        C  0.35780776  0.68992349  0.82826120     0.02370
C774        C  0.35731530  0.65341836  0.83042616     0.02370
C775        C  0.32093194  0.61755765  0.83017038     0.02370
C776        C  0.28488515  0.61776500  0.82992903     0.02370
O777        O  0.03821456  0.68374996  0.84902296    -0.74340
O778        O  0.13658700  0.68200187  0.84918160    -0.74370
O779        O  0.09479483  0.70001369  0.81853026    -0.74430
O780        O  0.08070914  0.66614322  0.87971515    -0.74480
O781        O  0.04498446  0.60336151  0.86767964    -0.74410
O782        O  0.06425923  0.63695120  0.80678274    -0.74390
O783        O  0.10267367  0.61843592  0.83843254    -0.74360
O784        O  0.00602158  0.62179411  0.83544973    -0.74430
Ni785      Ni  0.08870664  0.68528499  0.84957226     1.25410
Ni786      Ni  0.05321631  0.61788865  0.83677973     1.25360
C787        C  0.00610878  0.65322500  0.84159972     0.87840
C788        C  0.13569738  0.64990456  0.84341279     0.87770
C789        C  0.08288593  0.67408946  0.80266643     0.87800
C790        C  0.06044233  0.62900411  0.88369650     0.87970
O791        O  0.13632142  0.93869557  0.83583229    -0.74340
O792        O  0.03952377  0.83891378  0.83623045    -0.74370
O793        O  0.09512675  0.87920703  0.80571426    -0.74430
O794        O  0.08036388  0.89882177  0.86611412    -0.74480
O795        O  0.04890878  0.93019619  0.85346214    -0.74410
O796        O  0.05935489  0.90610762  0.79304689    -0.74390
O797        O  0.00530981  0.86824934  0.82485727    -0.74360
O798        O  0.10328535  0.96778174  0.82202590    -0.74430
Ni799      Ni  0.08898507  0.88782478  0.83637862     1.25410
Ni800      Ni  0.05292869  0.91911240  0.82289285     1.25360
C801        C  0.13577389  0.96954388  0.82892477     0.87840
C802        C  0.00659915  0.83724362  0.83083016     0.87770
C803        C  0.07958011  0.88915294  0.78948382     0.87800
C804        C  0.06306197  0.91874895  0.86964996     0.87970
C805        C  0.44793016  0.64418342  0.81831762    -0.21220
C806        C  0.46868017  0.65422229  0.83913298    -0.09260
C807        C  0.45291122  0.66419244  0.85713975     0.29590
C808        C  0.41628073  0.66296810  0.85437345    -0.21220
C809        C  0.39551040  0.65287809  0.83348673    -0.09280
C810        C  0.41217583  0.64432393  0.81534999     0.29600
F811        F  0.39454336  0.63728327  0.79458505    -0.19800
H812        H  0.95998446  0.63706590  0.80415472     0.17970
H813        H  0.40420514  0.67025740  0.86844853     0.17970
F814        F  0.47233356  0.67401296  0.87747079    -0.19790
C815        C  0.21267070  0.63020181  0.81940703    -0.21220
C816        C  0.24606574  0.65209415  0.83391248    -0.09260
C817        C  0.24214221  0.67160150  0.85258743     0.29590
C818        C  0.20617763  0.67092284  0.85583048    -0.21220
C819        C  0.17316077  0.64934651  0.84107899    -0.09280
C820        C  0.17660167  0.62837603  0.82306569     0.29600
F821        F  0.14572177  0.60793115  0.80814045    -0.19800
H822        H  0.21508223  0.61588963  0.80457165     0.17970
H823        H  0.20405224  0.68711569  0.86987044     0.17970
F824        F  0.27341833  0.69221104  0.86722680    -0.19790
C825        C  0.19534687  0.52066950  0.80979027    -0.21220
C826        C  0.17331398  0.50759121  0.82918896    -0.09260
C827        C  0.18834533  0.53006869  0.84909555     0.29590
C828        C  0.22491177  0.56557658  0.84946062    -0.21220
C829        C  0.24684948  0.57895341  0.82997001    -0.09280
C830        C  0.23193399  0.55605390  0.81014938     0.29600
F831        F  0.25230932  0.56862098  0.79101472    -0.19800
H832        H  0.18421930  0.50338012  0.79439901     0.17970
H833        H  0.23600654  0.58290563  0.86483301     0.17970
F834        F  0.16750386  0.51771337  0.86809116    -0.19790
C835        C  0.45908810  0.77327558  0.81239760    -0.21220
C836        C  0.46981702  0.79870910  0.83101535    -0.09260
C837        C  0.44542259  0.78698096  0.84958223     0.29590
C838        C  0.40989957  0.75041828  0.84919820    -0.21220
C839        C  0.39786593  0.72598154  0.82994426    -0.09280
C840        C  0.42328955  0.73718955  0.81174392     0.29600
F841        F  0.41186991  0.71485950  0.79269007    -0.19800
H842        H  0.47784343  0.78204799  0.79804431     0.17970
H843        H  0.39075969  0.74202396  0.86335752     0.17970
F844        F  0.45556744  0.81125773  0.86778891    -0.19790
C845        C  0.31225600  0.02171705  0.85142482    -0.21220
C846        C  0.31855906  0.00642644  0.83178961    -0.09260
C847        C  0.32521302  0.52740637  0.81174251     0.29590
C848        C  0.32514789  0.56309459  0.81130619    -0.21220
C849        C  0.32042521  0.57928188  0.83102665    -0.09280
C850        C  0.31373898  0.55833503  0.85114088     0.29600
F851        F  0.30858851  0.57330750  0.87036576    -0.19800
H852        H  0.30714281  0.00575842  0.86700027     0.17970
H853        H  0.32855121  0.57804719  0.79552414     0.17970
F854        F  0.33083228  0.51283945  0.79249098    -0.19790
C855        C  0.35577699  0.76752262  0.81879580    -0.21220
C856        C  0.32078818  0.73015479  0.82028567    -0.09260
C857        C  0.28560197  0.73208975  0.81611103     0.29590
C858        C  0.28489240  0.76705658  0.82035081    -0.21220
C859        C  0.32043473  0.80255459  0.82492365    -0.09280
C860        C  0.35617873  0.80284609  0.82239235     0.29600
F861        F  0.39170957  0.83721481  0.82260734    -0.19800
H862        H  0.38305541  0.77142859  0.81310612     0.17970
H863        H  0.25707949  0.76701899  0.81820697     0.17970
F864        F  0.25465789  0.70385572  0.80371948    -0.19790
C865        C  0.22851911  0.81447195  0.74625412    -0.21220
C866        C  0.24307324  0.83517797  0.72637347    -0.09260
C867        C  0.27528364  0.87425980  0.72740951     0.29590
C868        C  0.29217679  0.89234023  0.74838068    -0.21220
C869        C  0.27597538  0.87192557  0.76830477    -0.09280
C870        C  0.24448759  0.83247858  0.76694543     0.29600
F871        F  0.22914465  0.81098038  0.78568998    -0.19800
H872        H  0.20327570  0.78452967  0.74576399     0.17970
H873        H  0.31684440  0.92254062  0.74909371     0.17970
F874        F  0.28900219  0.89532442  0.70839381    -0.19790
C875        C  0.09337699  0.72891867  0.74858746    -0.21220
C876        C  0.11267671  0.71451234  0.73525761    -0.09260
C877        C  0.12077534  0.68565638  0.74413631     0.29590
C878        C  0.10973635  0.67167289  0.76586769    -0.21220
C879        C  0.09170231  0.68713000  0.77932636    -0.09280
C880        C  0.08345707  0.71578420  0.77052054     0.29600
F881        F  0.06566403  0.73091557  0.78309885    -0.19800
H882        H  0.08728274  0.75155383  0.74232336     0.17970
H883        H  0.11648981  0.64968381  0.77249292     0.17970
F884        F  0.13959621  0.67120076  0.73192477    -0.19790
C885        C  0.06304677  0.85691427  0.72830194    -0.21220
C886        C  0.09949978  0.85911820  0.72449954    -0.09260
C887        C  0.12996814  0.87490248  0.74127011     0.29590
C888        C  0.12327742  0.88567664  0.76202155    -0.21220
C889        C  0.08630755  0.88145992  0.76647569    -0.09280
C890        C  0.05640060  0.86813880  0.74930707     0.29600
F891        F  0.02021655  0.86366324  0.75326746    -0.19800
H892        H  0.03934041  0.84482340  0.71552033     0.17970
H893        H  0.14695276  0.89674099  0.77483973     0.17970
F894        F  0.16619987  0.87907403  0.73769993    -0.19790
C895        C  0.36007108  0.92194662  0.93476976    -0.21220
C896        C  0.39684439  0.92346718  0.93799834    -0.09260
C897        C  0.41564589  0.91987014  0.91904962     0.29590
C898        C  0.39926367  0.91729604  0.89756357    -0.21220
C899        C  0.36342260  0.91730906  0.89428836    -0.09280
C900        C  0.34331229  0.91863776  0.91312496     0.29600
F901        F  0.30846670  0.91862073  0.91059045    -0.19800
H902        H  0.34507404  0.92501866  0.94889666     0.17970
H903        H  0.41473900  0.91517976  0.88337382     0.17970
F904        F  0.45056046  0.91986622  0.92108410    -0.19790
C905        C  0.01603915  0.56488639  0.93379076    -0.21220
C906        C  0.04974311  0.57700822  0.94821703    -0.09260
C907        C  0.08572059  0.61088770  0.94269325     0.29590
C908        C  0.08840850  0.62985797  0.92221440    -0.21220
C909        C  0.05554935  0.61492225  0.90696448    -0.09280
C910        C  0.01896393  0.58323124  0.91329752     0.29600
F911        F  0.98635471  0.56891087  0.89923567    -0.19800
H912        H  0.48769241  0.53936326  0.93770061     0.17970
H913        H  0.11689249  0.65437865  0.91757102     0.17970
F914        F  0.11898565  0.62364287  0.95604212    -0.19790
C915        C  0.05401577  0.90351059  0.91032679    -0.21220
C916        C  0.06045046  0.92981711  0.89266459    -0.09260
C917        C  0.06543188  0.96737148  0.89721325     0.29590
C918        C  0.06442459  0.97851120  0.91913817    -0.21220
C919        C  0.05736779  0.95208228  0.93672722    -0.09280
C920        C  0.05169051  0.91428679  0.93227059     0.29600
F921        F  0.04440138  0.88819954  0.94909013    -0.19800
H922        H  0.05007360  0.87443308  0.90704524     0.17970
H923        H  0.06809951  0.50752855  0.92234754     0.17970
F924        F  0.07208997  0.99361786  0.88054412    -0.19790
C925        C  0.19622028  0.73483123  0.57320767    -0.21220
C926        C  0.23474081  0.74781791  0.56616750    -0.09260
C927        C  0.26702296  0.76550711  0.58187673     0.29590
C928        C  0.26073464  0.77236577  0.60406522    -0.21220
C929        C  0.22214676  0.76072790  0.61068557    -0.09280
C930        C  0.18989724  0.74082332  0.59526983     0.29600
F931        F  0.15224975  0.72888673  0.60138124    -0.19800
H932        H  0.17098934  0.72075086  0.56141788     0.17970
H933        H  0.28595134  0.78840245  0.61564898     0.17970
F934        F  0.30467870  0.77860819  0.57538566    -0.19790
C935        C  0.08363255  0.58472335  0.48008807    -0.21220
C936        C  0.07050917  0.56275321  0.49976060    -0.09260
C937        C  0.09482639  0.57592753  0.51939600     0.29590
C938        C  0.13195067  0.61064276  0.51924855    -0.21220
C939        C  0.14473381  0.63287863  0.49964766    -0.09280
C940        C  0.12038873  0.61977275  0.48004645     0.29600
F941        F  0.13250694  0.64063563  0.46082719    -0.19800
H942        H  0.06533638  0.57460409  0.46478867     0.17970
H943        H  0.15025061  0.62078099  0.53455031     0.17970
F944        F  0.08231701  0.55548363  0.53871086    -0.19790
C945        C  0.35667554  0.87079247  0.51697943    -0.21220
C946        C  0.34763525  0.84221932  0.50021691    -0.09260
C947        C  0.37427235  0.85044279  0.48306138     0.29590
C948        C  0.40912563  0.88715783  0.48238542    -0.21220
C949        C  0.41896318  0.91556212  0.49943005    -0.09280
C950        C  0.39252947  0.90694561  0.51690288     0.29600
F951        F  0.40178033  0.93305666  0.53409870    -0.19800
H952        H  0.33646329  0.86462063  0.53043116     0.17970
H953        H  0.42886131  0.89328648  0.46869428     0.17970
F954        F  0.36633399  0.82314234  0.46680158    -0.19790
C955        C  0.22836314  0.89729813  0.58918326    -0.21220
C956        C  0.21286209  0.91195065  0.60502044    -0.09260
C957        C  0.20685062  0.94363052  0.59926988     0.29590
C958        C  0.21518506  0.95953314  0.57786434    -0.21220
C959        C  0.22855501  0.94344708  0.56171168    -0.09280
C960        C  0.23574723  0.91261511  0.56754802     0.29600
F961        F  0.24969786  0.89728012  0.55235061    -0.19800
H962        H  0.23270435  0.87253970  0.59316411     0.17970
H963        H  0.20963911  0.98343968  0.57360125     0.17970
F964        F  0.19185395  0.95846718  0.61412083    -0.19790
C965        C  0.35597346  0.97255620  0.47973628    -0.21220
C966        C  0.34788185  0.99106768  0.49724251    -0.09260
C967        C  0.37684646  0.51051357  0.51448369     0.29590
C968        C  0.41244094  0.50995732  0.51465900    -0.21220
C969        C  0.42086271  0.99181247  0.49714209    -0.09280
C970        C  0.39249641  0.97359076  0.47941319     0.29600
F971        F  0.39997431  0.95651242  0.46193905    -0.19800
H972        H  0.33419943  0.95773126  0.46616952     0.17970
H973        H  0.43311431  0.52295070  0.52883924     0.17970
F974        F  0.37008974  0.52863519  0.53171540    -0.19790
C975        C  0.11622312  0.97450533  0.52025394    -0.21220
C976        C  0.13869198  0.98441466  0.50099671    -0.09260
C977        C  0.12609153  0.49624950  0.48166938     0.29590
C978        C  0.09117523  0.49809664  0.48160187    -0.21220
C979        C  0.06831814  0.98779084  0.50074437    -0.09280
C980        C  0.08104690  0.97604571  0.52014153     0.29600
F981        F  0.05962940  0.96650753  0.53893463    -0.19800
H982        H  0.12604314  0.96577729  0.53532891     0.17970
H983        H  0.08161788  0.50713398  0.46655066     0.17970
F984        F  0.14777764  0.50626181  0.46296094    -0.19790
C985        C  0.10240092  0.77870733  0.58858576    -0.21220
C986        C  0.08369069  0.78540492  0.60648260    -0.09260
C987        C  0.04486857  0.77883645  0.60275668     0.29590
C988        C  0.02616904  0.76735333  0.58135416    -0.21220
C989        C  0.04615506  0.76298287  0.56334626    -0.09280
C990        C  0.08415257  0.76793678  0.56735546     0.29600
F991        F  0.10410080  0.76287810  0.55066773    -0.19800
H992        H  0.13231820  0.78356797  0.59061090     0.17970
H993        H  0.99670031  0.76342676  0.57864943     0.17970
F994        F  0.02546076  0.78450706  0.61948632    -0.19790
C995        C  0.99366283  0.58215925  0.47839647    -0.21220
C996        C  0.49777643  0.56558156  0.49853983    -0.09260
C997        C  0.50470931  0.58673344  0.51874358     0.29590
C998        C  0.50558213  0.62303010  0.51888956    -0.21220
C999        C  0.50111955  0.63942484  0.49881074    -0.09280
C1000       C  0.99587574  0.61917649  0.47846947     0.29600
F1001       F  0.99214063  0.63487635  0.45880275    -0.19800
H1002       H  0.98896984  0.56647516  0.46266854     0.17970
H1003       H  0.50988446  0.63847081  0.53466854     0.17970
F1004       F  0.50962254  0.57168211  0.53836999    -0.19790
C1005       C  0.00989691  0.86831097  0.48246075    -0.21220
C1006       C  0.49613153  0.84318659  0.50094531    -0.09260
C1007       C  0.48033321  0.85349886  0.51883997     0.29590
C1008       C  0.47953819  0.88903403  0.51843472    -0.21220
C1009       C  0.49343667  0.91420756  0.49993971    -0.09280
C1010       C  0.00783079  0.90307128  0.48172024     0.29600
F1011       F  0.01938169  0.92561482  0.46307544    -0.19800
H1012       H  0.02138544  0.86048237  0.46831516     0.17970
H1013       H  0.46826255  0.89708683  0.53258580     0.17970
F1014       F  0.46678377  0.82982586  0.53697498    -0.19790
C1015       C  0.41780805  0.53696160  0.07185311    -0.21220
C1016       C  0.44927722  0.53058933  0.06732231    -0.09260
C1017       C  0.47535403  0.53276818  0.08484710     0.29590
C1018       C  0.47053484  0.54197008  0.10654977    -0.21220
C1019       C  0.43957891  0.54915353  0.11121754    -0.09280
C1020       C  0.41312001  0.54660770  0.09365367     0.29600
F1021       F  0.38222562  0.55239567  0.09761308    -0.19800
H1022       H  0.39702783  0.53455305  0.05853184     0.17970
H1023       H  0.99111762  0.54342088  0.11973803     0.17970
F1024       F  0.00438903  0.52408238  0.08115568    -0.19790
C1025       C  0.48404950  0.91224972  0.06800546    -0.21220
C1026       C  0.45107114  0.90360426  0.05364553    -0.09260
C1027       C  0.41337074  0.87209081  0.05914834     0.29590
C1028       C  0.40862534  0.85219299  0.07952065    -0.21220
C1029       C  0.44118441  0.86383209  0.09468299    -0.09280
C1030       C  0.47915504  0.89296498  0.08838177     0.29600
F1031       F  0.51135890  0.90397427  0.10240854    -0.19800
H1032       H  0.01355542  0.93589978  0.06414647     0.17970
H1033       H  0.37908546  0.82971928  0.08416548     0.17970
F1034       F  0.38065897  0.86282041  0.04593050    -0.19790
C1035       C  0.09890396  0.57818009  0.08045070    -0.21220
C1036       C  0.11357108  0.56556081  0.06312667    -0.09260
C1037       C  0.14621657  0.55999481  0.06771738     0.29590
C1038       C  0.16174434  0.56418003  0.08971376    -0.21220
C1039       C  0.14438778  0.57321657  0.10724772    -0.09280
C1040       C  0.11378444  0.58156648  0.10234252     0.29600
F1041       F  0.09779867  0.59240938  0.11880529    -0.19800
H1042       H  0.07449143  0.58363587  0.07718167     0.17970
H1043       H  0.18576266  0.55820704  0.09323399     0.17970
F1044       F  0.16090173  0.54739749  0.05141596    -0.19790
C1045       C  0.18637175  0.70617936  0.19059727    -0.21220
C1046       C  0.18154385  0.68461750  0.17091446    -0.09260
C1047       C  0.17571051  0.69866450  0.15024623     0.29590
C1048       C  0.17393513  0.73360288  0.14938108    -0.21220
C1049       C  0.17902665  0.75537709  0.16904497    -0.09280
C1050       C  0.18563210  0.74167425  0.18966450     0.29600
F1051       F  0.19096527  0.76248023  0.20885426    -0.19800
H1052       H  0.19080372  0.69553988  0.20663305     0.17970
H1053       H  0.16889724  0.74391761  0.13338611     0.17970
F1054       F  0.17127201  0.67829574  0.13099386    -0.19790
C1055       C  0.19291678  0.96699303  0.15240627    -0.21220
C1056       C  0.17446678  0.97488637  0.16984419    -0.09260
C1057       C  0.15519114  0.94579189  0.18611919     0.29590
C1058       C  0.15564219  0.91008861  0.18529572    -0.21220
C1059       C  0.17425658  0.90222913  0.16789423    -0.09280
C1060       C  0.19215107  0.93076885  0.15114691     0.29600
F1061       F  0.20850858  0.92342400  0.13342723    -0.19800
H1062       H  0.20736579  0.48870929  0.13948083     0.17970
H1063       H  0.14179000  0.88863587  0.19841066     0.17970
F1064       F  0.13722801  0.95247395  0.20326873    -0.19790
C1065       C  0.08049327  0.73466296  0.14942027    -0.21220
C1066       C  0.10358837  0.75246314  0.16899698    -0.09260
C1067       C  0.09175973  0.73261228  0.18947417     0.29590
C1068       C  0.05736387  0.69533722  0.19027966    -0.21220
C1069       C  0.03394098  0.67783042  0.17076730    -0.09280
C1070       C  0.04568958  0.69768693  0.15029652     0.29600
F1071       F  0.02373553  0.68099319  0.13114945    -0.19800
H1072       H  0.08945653  0.74952108  0.13351632     0.17970
H1073       H  0.54830250  0.68067454  0.20623516     0.17970
F1074       F  0.11296874  0.74981806  0.20873676    -0.19790
C1075       C  0.27789769  0.91619102  0.15274821    -0.21220
C1076       C  0.25087325  0.90397150  0.17009540    -0.09260
C1077       C  0.26125474  0.92759359  0.18965263     0.29590
C1078       C  0.29800842  0.96285007  0.19168793    -0.21220
C1079       C  0.32503847  0.97452548  0.17443483    -0.09280
C1080       C  0.31479131  0.95100978  0.15494590     0.29600
F1081       F  0.34038060  0.96204796  0.13794030    -0.19800
H1082       H  0.27039788  0.89852604  0.13753376     0.17970
H1083       H  0.30552523  0.98087987  0.20675959     0.17970
F1084       F  0.23617767  0.91609331  0.20691499    -0.19790
C1085       C  0.07302423  0.80990684  0.18173841    -0.21220
C1086       C  0.10013883  0.82530612  0.16444099    -0.09260
C1087       C  0.08965893  0.83874703  0.14485128     0.29590
C1088       C  0.05301433  0.83747323  0.14287885    -0.21220
C1089       C  0.02606894  0.82201717  0.16018737    -0.09280
C1090       C  0.03611550  0.80792644  0.17956503     0.29600
F1091       F  0.51058518  0.79318338  0.19659375    -0.19800
H1092       H  0.08068861  0.79981992  0.19703899     0.17970
H1093       H  0.04571225  0.84872747  0.12791097     0.17970
F1094       F  0.11492477  0.85314017  0.12768815    -0.19790
C1095       C  0.25974365  0.81720155  0.14514595    -0.21220
C1096       C  0.25179109  0.82997330  0.16525227    -0.09260
C1097       C  0.28019569  0.84296742  0.18307930     0.29590
C1098       C  0.31622742  0.84373116  0.18061834    -0.21220
C1099       C  0.32377562  0.83016506  0.16068033    -0.09280
C1100       C  0.29516848  0.81666264  0.14295942     0.29600
F1101       F  0.30192767  0.80389790  0.12339662    -0.19800
H1102       H  0.23834845  0.80756602  0.13114891     0.17970
H1103       H  0.33786683  0.85394040  0.19451252     0.17970
F1104       F  0.27284963  0.85447095  0.20288113    -0.19790
C1105       C  0.35947831  0.77471311  0.25279617    -0.21220
C1106       C  0.38341075  0.76463965  0.26634880    -0.09260
C1107       C  0.41856720  0.76889568  0.25749233     0.29590
C1108       C  0.42861218  0.78185388  0.23547854    -0.21220
C1109       C  0.40394960  0.79078000  0.22203633    -0.09280
C1110       C  0.36957938  0.78756654  0.23087923     0.29600
F1111       F  0.34536034  0.79619953  0.21812566    -0.19800
H1112       H  0.33220419  0.77166162  0.25892080     0.17970
H1113       H  0.45540122  0.78451667  0.22883940     0.17970
F1114       F  0.44290379  0.75991810  0.26984687    -0.19790
C1115       C  0.22125166  0.63857550  0.27016741    -0.21220
C1116       C  0.25140301  0.63150683  0.27839687    -0.09260
C1117       C  0.25917030  0.60505818  0.26652772     0.29590
C1118       C  0.24055027  0.58991699  0.24566882    -0.21220
C1119       C  0.21296704  0.59968784  0.23664438    -0.09280
C1120       C  0.20197820  0.62263119  0.24939717     0.29600
F1121       F  0.17556535  0.63281101  0.24080741    -0.19800
H1122       H  0.21490312  0.65895933  0.27885647     0.17970
H1123       H  0.24888864  0.57185028  0.23611489     0.17970
F1124       F  0.28680654  0.59593290  0.27436014    -0.19790
C1125       C  0.41169361  0.58110229  0.25510344    -0.21220
C1126       C  0.42491945  0.60803636  0.23739389    -0.09260
C1127       C  0.43554589  0.64764375  0.24133145     0.29590
C1128       C  0.42986787  0.65934356  0.26219021    -0.21220
C1129       C  0.41355937  0.63180071  0.27945450    -0.09280
C1130       C  0.40577504  0.59279899  0.27606294     0.29600
F1131       F  0.38895009  0.56515144  0.29220561    -0.19800
H1132       H  0.40356712  0.55047864  0.25230125     0.17970
H1133       H  0.43632739  0.68954379  0.26452076     0.17970
F1134       F  0.45042607  0.67478442  0.22478600    -0.19790
C1135       C  0.45097007  0.70100891  0.39831533    -0.21220
C1136       C  0.41319310  0.69712180  0.39473768    -0.09260
C1137       C  0.39680961  0.70742962  0.41249133     0.29590
C1138       C  0.41629063  0.71847387  0.43342285    -0.21220
C1139       C  0.45284695  0.72033150  0.43729604    -0.09280
C1140       C  0.47084149  0.71279834  0.41938110     0.29600
F1141       F  0.50635376  0.71437795  0.42257171    -0.19800
H1142       H  0.46438395  0.69328226  0.38513495     0.17970
H1143       H  0.40212527  0.72466405  0.44687686     0.17970
F1144       F  0.36035366  0.70391532  0.41039309    -0.19790
C1145       C  0.24854016  0.53310279  0.39813756    -0.21220
C1146       C  0.28458329  0.56894703  0.39658777    -0.09260
C1147       C  0.30825930  0.58680896  0.41593206     0.29590
C1148       C  0.29637592  0.56933463  0.43657510    -0.21220
C1149       C  0.26107180  0.53301422  0.43838213    -0.09280
C1150       C  0.23700060  0.51472283  0.41900540     0.29600
F1151       F  0.20253666  0.97958688  0.42026673    -0.19800
H1152       H  0.23006568  0.51905003  0.38324648     0.17970
H1153       H  0.31565565  0.58383649  0.45115581     0.17970
F1154       F  0.34328215  0.62129048  0.41485458    -0.19790
C1155       C  0.30247847  0.73564830  0.40482157    -0.21220
C1156       C  0.27010936  0.71418754  0.38981511    -0.09260
C1157       C  0.23135473  0.70066316  0.39691914     0.29590
C1158       C  0.22544250  0.70760223  0.41918738    -0.21220
C1159       C  0.25805050  0.72656268  0.43456880    -0.09280
C1160       C  0.29659638  0.74082160  0.42709579     0.29600
F1161       F  0.32859976  0.75868137  0.44152195    -0.19800
H1162       H  0.33252729  0.74663353  0.39948554     0.17970
H1163       H  0.19545194  0.69624391  0.42474094     0.17970
F1164       F  0.19948861  0.67919958  0.38280340    -0.19790
O1165       O  0.89846299  0.12788012  0.31796452    -0.80810
O1166       O  0.78829099  0.17418662  0.37106545    -0.65500
O1167       O  0.83345541  0.13515574  0.33062707    -1.12100
C1168       C  0.86904865  0.24608715  0.28847179     1.06080
O1169       O  0.78088329  0.21852072  0.35066301    -0.78700
O1170       O  0.77056865  0.17510077  0.31043658    -0.66280
Ni1171     Ni  0.86483776  0.11408669  0.34350590     1.34870
C1172       C  0.78016959  0.15743167  0.29609177     0.84820
O1173       O  0.78176240  0.10415999  0.36506370    -0.79240
O1174       O  0.83317651  0.09414164  0.36968018    -0.89520
C1175       C  0.77865534  0.20058584  0.36894480     0.84390
O1176       O  0.90046056  0.16246564  0.35950688    -0.67720
O1177       O  0.83565454  0.24046088  0.29481546    -0.87010
C1178       C  0.88833024  0.17722134  0.37417211     0.85220
C1179       C  0.79944876  0.08848495  0.37527307     1.06790
H1180       H  0.86088148  0.22376612  0.34566243     0.38590
O1181       O  0.83983405  0.20411378  0.33601321    -1.09670
O1182       O  0.81570935  0.16412623  0.29477271    -0.66320
Ni1183     Ni  0.86128944  0.18409582  0.31522320     1.26350
O1184       O  0.85329788  0.17219009  0.37301801    -0.66550
O1185       O  0.88813848  0.23293237  0.29967533    -0.78840
C1186       C  0.89760439  0.14183125  0.29873014     0.84600
O1187       O  0.88187696  0.16297823  0.29488249    -0.66020
Ni1188     Ni  0.80893033  0.22589923  0.32312410     1.27450
Ni1189     Ni  0.81033751  0.15422042  0.35082193     1.26060
H1190       H  0.81266963  0.11475413  0.32112598     0.39150
C1191       C  0.71348490  0.32954172  0.16729421     0.02370
C1192       C  0.71261380  0.36545911  0.16813560     0.02370
C1193       C  0.67543008  0.36439963  0.16753401     0.02370
C1194       C  0.63940169  0.32717542  0.16683799     0.02370
C1195       C  0.64079037  0.29154593  0.16798655     0.02370
C1196       C  0.67771605  0.29281277  0.16798105     0.02370
O1197       O  0.70814483  0.04513430  0.16605283    -0.74340
O1198       O  0.71239284  0.14558436  0.16753774    -0.74370
O1199       O  0.72620943  0.10157573  0.19812007    -0.74430
O1200       O  0.69444215  0.08954735  0.13593414    -0.74480
O1201       O  0.63098520  0.05913142  0.14561132    -0.74410
O1202       O  0.66273458  0.07283611  0.20765487    -0.74390
O1203       O  0.64867830  0.11535986  0.17678273    -0.74360
O1204       O  0.64514097  0.01512035  0.17641683    -0.74430
Ni1205     Ni  0.71262092  0.09643477  0.16665588     1.25410
Ni1206     Ni  0.64461030  0.06430879  0.17694650     1.25360
C1207       C  0.67593967  0.01356016  0.17090711     0.87840
C1208       C  0.68099601  0.14676099  0.17196955     0.87770
C1209       C  0.69986320  0.09040713  0.21302921     0.87800
C1210       C  0.65733631  0.07359286  0.13067986     0.87970
O1211       O  0.95615380  0.29275225  0.15275276    -0.74340
O1212       O  0.85962194  0.29738755  0.15218260    -0.74370
O1213       O  0.91539257  0.31220864  0.12178912    -0.74430
O1214       O  0.89953477  0.27776952  0.18291436    -0.74480
O1215       O  0.93443832  0.34072646  0.19487039    -0.74410
O1216       O  0.94994928  0.37499068  0.13398593    -0.73940
O1217       O  0.89407054  0.35995461  0.16475964    -0.74360
O1218       O  0.99040015  0.35584565  0.16450063    -0.74430
Ni1219     Ni  0.90653374  0.29274511  0.15194641     1.25410
Ni1220     Ni  0.94347762  0.36011737  0.16487061     1.25360
C1221       C  0.98905413  0.32357437  0.15889348     0.87840
C1222       C  0.86098116  0.32921874  0.15890427     0.87770
C1223       C  0.93521198  0.34943877  0.11790666     0.87800
C1224       C  0.91367610  0.30364161  0.19883509     0.87970
O1225       O  0.89516131  0.01178088  0.18152344    -0.74340
O1226       O  0.99533820  0.10932932  0.17991940    -0.74370
O1227       O  0.94001262  0.07234085  0.21110046    -0.74430
O1228       O  0.95086435  0.04878640  0.15060386    -0.74480
O1229       O  0.91683334  0.07755192  0.13809965    -0.74410
O1230       O  0.91168004  0.10661710  0.19831733    -0.74390
O1231       O  0.96394619  0.13962807  0.16548981    -0.74360
O1232       O  0.86378470  0.04416225  0.17057014    -0.74430
Ni1233     Ni  0.94643015  0.05934894  0.18126618     1.25410
Ni1234     Ni  0.91285864  0.09305684  0.16775525     1.25360
C1235       C  0.86311446  0.01203633  0.17599909     0.87840
C1236       C  0.99598289  0.14035017  0.17208174     0.87770
C1237       C  0.92542513  0.09476466  0.21453823     0.87800
C1238       C  0.93536743  0.05886984  0.13441430     0.87970
O1239       O  0.52828512  0.30600715  0.49395274    -0.74340
O1240       O  0.53102308  0.20887126  0.49291947    -0.74370
O1241       O  0.00823365  0.24717321  0.46348596    -0.74430
O1242       O  0.55150530  0.26758211  0.52367960    -0.74480
O1243       O  0.99060386  0.23555399  0.53716605    -0.74410
O1244       O  0.94722533  0.21602544  0.47690107    -0.74390
O1245       O  0.96995879  0.17695710  0.50632662    -0.74360
O1246       O  0.96773406  0.27414463  0.50795328    -0.74430
Ni1247     Ni  0.53199368  0.25862491  0.49310452     1.25410
Ni1248     Ni  0.96668249  0.22446804  0.50751984     1.25360
C1249       C  0.99754074  0.30602472  0.50107085     0.87840
C1250       C  0.00072031  0.17692654  0.49933867     0.87770
C1251       C  0.97041547  0.22824458  0.46031341     0.87800
C1252       C  0.52845822  0.25489657  0.54030623     0.87970
O1253       O  0.80769813  0.01888552  0.50616196    -0.74340
O1254       O  0.70806066  0.01583140  0.50799428    -0.74370
O1255       O  0.75065944  0.49647611  0.53645398    -0.74430
O1256       O  0.76496971  0.03830166  0.47778038    -0.74480
O1257       O  0.73283350  0.47736715  0.46277367    -0.74410
O1258       O  0.72199908  0.43518115  0.52198925    -0.74390
O1259       O  0.67705821  0.45399815  0.49410754    -0.74360
O1260       O  0.77757930  0.45860790  0.49034468    -0.74430
Ni1261     Ni  0.75890448  0.01950428  0.50759775     1.25410
Ni1262     Ni  0.72616178  0.45396994  0.49181495     1.25360
C1263       C  0.80918540  0.48948217  0.49783010     0.87840
C1264       C  0.67632735  0.48450974  0.50126978     0.87770
C1265       C  0.73426515  0.45900927  0.53891053     0.87800
C1266       C  0.75172206  0.01509614  0.46065080     0.87970
C1267       C  0.53052895  0.48860108  0.50011161     0.02370
C1268       C  0.99372055  0.45268566  0.49979378     0.02370
C1269       C  0.95764209  0.45357716  0.49915376     0.02370
C1270       C  0.95865522  0.49057154  0.49814056     0.02370
C1271       C  0.99583435  0.02644694  0.49851565     0.02370
C1272       C  0.53158215  0.02529894  0.49950354     0.02370
O1273       O  0.81230904  0.27228609  0.50389486    -0.74340
O1274       O  0.71517541  0.17217697  0.50477441    -0.74370
O1275       O  0.76759483  0.21585561  0.47289327    -0.74430
O1276       O  0.76059570  0.22909429  0.53585649    -0.74480
O1277       O  0.72358571  0.25690466  0.52784540    -0.74410
O1278       O  0.73397585  0.24723407  0.46489107    -0.74390
O1279       O  0.68086292  0.20237211  0.49545889    -0.74360
O1280       O  0.77726680  0.30267904  0.49732947    -0.74430
Ni1281     Ni  0.76512868  0.22120455  0.50462262     1.25410
Ni1282     Ni  0.72774556  0.25344497  0.49613306     1.25360
C1283       C  0.81059102  0.30388907  0.50060851     0.87840
C1284       C  0.68214594  0.17092425  0.49999343     0.87770
C1285       C  0.75250145  0.22975170  0.45858892     0.87800
C1286       C  0.74031953  0.24470485  0.54215493     0.87970
O1287       O  0.90091683  0.43524748  0.97771527    -0.80810
O1288       O  0.55234379  0.03474565  0.04351994    -0.65500
O1289       O  0.97195018  0.49430943  0.99782164    -1.12100
C1290       C  0.55282428  0.46401135  0.95904253     1.06080
O1291       O  0.60646859  0.05343607  0.02367549    -0.78700
O1292       O  0.57425815  0.06066986  0.98196045    -0.66280
Ni1293     Ni  0.91799230  0.46183123  0.00685623     1.34870
C1294       C  0.54774675  0.04957479  0.96613363     0.84820
O1295       O  0.98766206  0.03899757  0.03620842    -0.79240
O1296       O  0.92652910  0.48682966  0.03612665    -0.89520
C1297       C  0.58966043  0.05099748  0.04203617     0.84390
O1298       O  0.92978132  0.42352797  0.02005108    -0.67720
O1299       O  0.57937671  0.49782553  0.96667965    -0.87010
C1300       C  0.95593062  0.43258024  0.03598620     0.85220
C1301       C  0.95414614  0.01903106  0.04488897     1.06790
H1302       H  0.53590839  0.46909320  0.01419275     0.38590
O1303       O  0.53595033  0.49010728  0.00546555    -1.09670
O1304       O  0.52008888  0.01356632  0.96371134    -0.66320
Ni1305     Ni  0.99542117  0.46814294  0.98287659     1.26350
O1306       O  0.98558279  0.46766654  0.03879352    -0.66550
O1307       O  0.52015737  0.44329211  0.96847325    -0.78840
C1308       C  0.91859854  0.43508109  0.96013043     0.84600
O1309       O  0.95534906  0.44696926  0.96019926    -0.66020
Ni1310     Ni  0.58884577  0.02451741  0.99538837     1.27450
Ni1311     Ni  0.51197820  0.01481241  0.02089651     1.26060
H1312       H  0.97346853  0.01597167  0.98910829     0.39150
O1313       O  0.71440636  0.25871612  0.65020628    -0.80810
O1314       O  0.62139005  0.32047998  0.70785530    -0.65500
O1315       O  0.65597852  0.27413066  0.66569336    -1.12100
C1316       C  0.69716165  0.38999376  0.62580910     1.06080
O1317       O  0.59999225  0.35139668  0.68481965    -0.78700
O1318       O  0.59675207  0.31924241  0.64217198    -0.66280
Ni1319     Ni  0.68620002  0.25081529  0.67780647     1.34870
C1320       C  0.60779040  0.30353495  0.62747259     0.84820
O1321       O  0.60982532  0.24850858  0.70295071    -0.79240
O1322       O  0.65917647  0.23547807  0.70612467    -0.89520
C1323       C  0.60643793  0.34229054  0.70442395     0.84390
O1324       O  0.72633505  0.30028136  0.69127926    -0.67720
O1325       O  0.66526357  0.38708771  0.63288495    -0.87010
C1326       C  0.71750416  0.31755917  0.70621049     0.85220
C1327       C  0.62734483  0.23275667  0.71322729     1.06790
H1328       H  0.68715431  0.36458457  0.67985133     0.38590
O1329       O  0.66527917  0.34436673  0.67083162    -1.09670
O1330       O  0.64162525  0.30593685  0.62883073    -0.66320
Ni1331     Ni  0.68538128  0.32305103  0.65004599     1.26350
O1332       O  0.68344649  0.31460737  0.70680815    -0.66550
O1333       O  0.71349532  0.37177477  0.63468556    -0.78840
C1334       C  0.71452746  0.27500015  0.63159787     0.84600
O1335       O  0.70419759  0.30081522  0.62934446    -0.66020
Ni1336     Ni  0.63364516  0.36624856  0.65903927     1.27450
Ni1337     Ni  0.63749357  0.29645270  0.68692386     1.26060
H1338       H  0.63379081  0.25457992  0.65656511     0.39150
O1339       O  0.84993281  0.46917805  0.82527738    -0.74340
O1340       O  0.85146311  0.37251804  0.82353155    -0.74370
O1341       O  0.83017739  0.41098945  0.79415466    -0.74430
O1342       O  0.87115870  0.42910119  0.85502889    -0.74480
O1343       O  0.80947656  0.39629050  0.86744335    -0.74410
O1344       O  0.76868719  0.37933130  0.80691412    -0.74390
O1345       O  0.78948007  0.33943152  0.83544589    -0.74360
O1346       O  0.78873475  0.43729451  0.83853302    -0.74430
Ni1347     Ni  0.85293715  0.42189494  0.82415703     1.25410
Ni1348     Ni  0.78689422  0.38717836  0.83757188     1.25360
C1349       C  0.81910899  0.46915571  0.83207536     0.87840
C1350       C  0.82044426  0.33992109  0.82834402     0.87770
C1351       C  0.79249842  0.38944200  0.79070247     0.87800
C1352       C  0.84717523  0.41451835  0.87118153     0.87970
C1353       C  0.78472348  0.15420980  0.82926784     0.02370
C1354       C  0.82113645  0.19114539  0.82552688     0.02370
C1355       C  0.85780776  0.18992349  0.82826121     0.02370
C1356       C  0.85731530  0.15341836  0.83042616     0.02370
C1357       C  0.82093194  0.11755765  0.83017039     0.02370
C1358       C  0.78488516  0.11776500  0.82992903     0.02370
O1359       O  0.53821456  0.18374996  0.84902296    -0.74340
O1360       O  0.63658700  0.18200187  0.84918160    -0.74370
O1361       O  0.59479483  0.20001370  0.81853025    -0.74430
O1362       O  0.58070914  0.16614322  0.87971515    -0.74480
O1363       O  0.54498446  0.10336151  0.86767964    -0.74410
O1364       O  0.56425923  0.13695120  0.80678274    -0.74390
O1365       O  0.60267368  0.11843593  0.83843254    -0.74360
O1366       O  0.50602158  0.12179411  0.83544973    -0.74430
Ni1367     Ni  0.58870664  0.18528500  0.84957225     1.25410
Ni1368     Ni  0.55321632  0.11788865  0.83677973     1.25360
C1369       C  0.50610878  0.15322500  0.84159972     0.87840
C1370       C  0.63569738  0.14990456  0.84341278     0.87770
C1371       C  0.58288593  0.17408946  0.80266643     0.87800
C1372       C  0.56044233  0.12900411  0.88369650     0.87970
O1373       O  0.63632142  0.43869557  0.83583228    -0.74340
O1374       O  0.53952378  0.33891377  0.83623044    -0.74370
O1375       O  0.59512676  0.37920702  0.80571425    -0.74430
O1376       O  0.58036389  0.39882176  0.86611411    -0.74480
O1377       O  0.54890878  0.43019619  0.85346214    -0.74410
O1378       O  0.55935490  0.40610762  0.79304688    -0.74390
O1379       O  0.50530981  0.36824933  0.82485727    -0.74360
O1380       O  0.60328536  0.46778174  0.82202589    -0.74430
Ni1381     Ni  0.58898508  0.38782478  0.83637862     1.25410
Ni1382     Ni  0.55292869  0.41911240  0.82289284     1.25360
C1383       C  0.63577390  0.46954388  0.82892476     0.87840
C1384       C  0.50659916  0.33724362  0.83083015     0.87770
C1385       C  0.57958011  0.38915294  0.78948381     0.87800
C1386       C  0.56306198  0.41874894  0.86964996     0.87970
C1387       C  0.94793017  0.14418342  0.81831762    -0.21220
C1388       C  0.96868017  0.15422229  0.83913298    -0.09260
C1389       C  0.95291122  0.16419244  0.85713975     0.29590
C1390       C  0.91628073  0.16296809  0.85437345    -0.21220
C1391       C  0.89551040  0.15287809  0.83348673    -0.09280
C1392       C  0.91217584  0.14432393  0.81534999     0.29600
F1393       F  0.89454336  0.13728327  0.79458505    -0.19800
H1394       H  0.45998446  0.13706591  0.80415471     0.17970
H1395       H  0.90420514  0.17025739  0.86844853     0.17970
F1396       F  0.97233355  0.17401295  0.87747079    -0.19790
C1397       C  0.71267071  0.13020181  0.81940703    -0.21220
C1398       C  0.74606574  0.15209416  0.83391248    -0.09260
C1399       C  0.74214221  0.17160150  0.85258743     0.29590
C1400       C  0.70617764  0.17092285  0.85583048    -0.21220
C1401       C  0.67316077  0.14934651  0.84107899    -0.09280
C1402       C  0.67660167  0.12837604  0.82306569     0.29600
F1403       F  0.64572178  0.10793116  0.80814045    -0.19800
H1404       H  0.71508224  0.11588963  0.80457165     0.17970
H1405       H  0.70405224  0.18711570  0.86987044     0.17970
F1406       F  0.77341833  0.19221104  0.86722680    -0.19790
C1407       C  0.69534687  0.02066950  0.80979027    -0.21220
C1408       C  0.67331398  0.00759121  0.82918896    -0.09260
C1409       C  0.68834533  0.03006869  0.84909556     0.29590
C1410       C  0.72491178  0.06557658  0.84946062    -0.21220
C1411       C  0.74684948  0.07895341  0.82997001    -0.09280
C1412       C  0.73193399  0.05605390  0.81014938     0.29600
F1413       F  0.75230932  0.06862098  0.79101472    -0.19800
H1414       H  0.68421930  0.00338012  0.79439902     0.17970
H1415       H  0.73600655  0.08290563  0.86483301     0.17970
F1416       F  0.66750386  0.01771337  0.86809117    -0.19790
C1417       C  0.95908810  0.27327558  0.81239760    -0.21220
C1418       C  0.96981702  0.29870909  0.83101535    -0.09260
C1419       C  0.94542260  0.28698095  0.84958223     0.29590
C1420       C  0.90989959  0.25041827  0.84919821    -0.21220
C1421       C  0.89786593  0.22598154  0.82994426    -0.09280
C1422       C  0.92328955  0.23718955  0.81174392     0.29600
F1423       F  0.91186990  0.21485950  0.79269007    -0.19800
H1424       H  0.97784342  0.28204799  0.79804431     0.17970
H1425       H  0.89075971  0.24202394  0.86335752     0.17970
F1426       F  0.95556746  0.31125771  0.86778892    -0.19790
C1427       C  0.81225600  0.52171705  0.85142482    -0.21220
C1428       C  0.81855907  0.50642645  0.83178962    -0.09260
C1429       C  0.82521302  0.02740637  0.81174250     0.29590
C1430       C  0.82514789  0.06309459  0.81130619    -0.21220
C1431       C  0.82042521  0.07928188  0.83102665    -0.09280
C1432       C  0.81373898  0.05833502  0.85114088     0.29600
F1433       F  0.80858851  0.07330749  0.87036575    -0.19800
H1434       H  0.80714282  0.50575842  0.86700027     0.17970
H1435       H  0.82855121  0.07804719  0.79552413     0.17970
F1436       F  0.83083227  0.01283946  0.79249097    -0.19790
C1437       C  0.85577700  0.26752263  0.81879582    -0.21220
C1438       C  0.82078818  0.23015479  0.82028568    -0.09260
C1439       C  0.78560198  0.23208975  0.81611103     0.29590
C1440       C  0.78489240  0.26705658  0.82035081    -0.21220
C1441       C  0.82043472  0.30255459  0.82492365    -0.09280
C1442       C  0.85617873  0.30284609  0.82239237     0.29600
F1443       F  0.89170957  0.33721482  0.82260737    -0.19800
H1444       H  0.88305543  0.27142861  0.81310615     0.17970
H1445       H  0.75707949  0.26701899  0.81820697     0.17970
F1446       F  0.75465791  0.20385573  0.80371948    -0.19790
C1447       C  0.72851905  0.31447196  0.74625413    -0.21220
C1448       C  0.74307322  0.33517796  0.72637347    -0.09260
C1449       C  0.77528366  0.37425977  0.72740951     0.29590
C1450       C  0.79217682  0.39234020  0.74838068    -0.21220
C1451       C  0.77597537  0.37192557  0.76830477    -0.09280
C1452       C  0.74448754  0.33247859  0.76694544     0.29600
F1453       F  0.72914455  0.31098042  0.78568999    -0.19800
H1454       H  0.70327562  0.28452971  0.74576400     0.17970
H1455       H  0.81684447  0.42254057  0.74909372     0.17970
F1456       F  0.78900226  0.39532437  0.70839381    -0.19790
C1457       C  0.59337698  0.22891866  0.74858746    -0.21220
C1458       C  0.61267671  0.21451234  0.73525761    -0.09260
C1459       C  0.62077535  0.18565638  0.74413631     0.29590
C1460       C  0.60973635  0.17167289  0.76586769    -0.21220
C1461       C  0.59170230  0.18713000  0.77932636    -0.09280
C1462       C  0.58345706  0.21578419  0.77052054     0.29600
F1463       F  0.56566402  0.23091556  0.78309884    -0.19800
H1464       H  0.58728273  0.25155383  0.74232335     0.17970
H1465       H  0.61648982  0.14968381  0.77249292     0.17970
F1466       F  0.63959622  0.17120077  0.73192477    -0.19790
C1467       C  0.56304677  0.35691427  0.72830194    -0.21220
C1468       C  0.59949979  0.35911820  0.72449953    -0.09260
C1469       C  0.62996815  0.37490250  0.74127010     0.29590
C1470       C  0.62327743  0.38567666  0.76202154    -0.21220
C1471       C  0.58630756  0.38145992  0.76647568    -0.09280
C1472       C  0.55640060  0.36813879  0.74930707     0.29600
F1473       F  0.52021654  0.36366323  0.75326746    -0.19800
H1474       H  0.53934041  0.34482339  0.71552033     0.17970
H1475       H  0.64695277  0.39674101  0.77483972     0.17970
F1476       F  0.66619988  0.37907406  0.73769991    -0.19790
C1477       C  0.86007108  0.42194662  0.93476977    -0.21220
C1478       C  0.89684438  0.42346716  0.93799835    -0.09260
C1479       C  0.91564587  0.41987011  0.91904962     0.29590
C1480       C  0.89926366  0.41729601  0.89756357    -0.21220
C1481       C  0.86342259  0.41730905  0.89428837    -0.09280
C1482       C  0.84331229  0.41863777  0.91312497     0.29600
F1483       F  0.80846672  0.41862077  0.91059045    -0.19800
H1484       H  0.84507405  0.42501868  0.94889666     0.17970
H1485       H  0.91473897  0.41517972  0.88337382     0.17970
F1486       F  0.95056043  0.41986616  0.92108411    -0.19790
C1487       C  0.51603916  0.06488640  0.93379075    -0.21220
C1488       C  0.54974312  0.07700822  0.94821702    -0.09260
C1489       C  0.58572060  0.11088770  0.94269325     0.29590
C1490       C  0.58840851  0.12985797  0.92221439    -0.21220
C1491       C  0.55554935  0.11492225  0.90696448    -0.09280
C1492       C  0.51896394  0.08323125  0.91329751     0.29600
F1493       F  0.48635471  0.06891088  0.89923567    -0.19800
H1494       H  0.98769241  0.03936327  0.93770061     0.17970
H1495       H  0.61689250  0.15437865  0.91757102     0.17970
F1496       F  0.61898566  0.12364287  0.95604211    -0.19790
C1497       C  0.55401576  0.40351057  0.91032678    -0.21220
C1498       C  0.56045047  0.42981711  0.89266459    -0.09260
C1499       C  0.56543193  0.46737149  0.89721325     0.29590
C1500       C  0.56442464  0.47851120  0.91913817    -0.21220
C1501       C  0.55736781  0.45208228  0.93672721    -0.09280
C1502       C  0.55169051  0.41428678  0.93227059     0.29600
F1503       F  0.54440135  0.38819952  0.94909012    -0.19800
H1504       H  0.55007356  0.37443305  0.90704523     0.17970
H1505       H  0.56809953  0.00752856  0.92234754     0.17970
F1506       F  0.57209003  0.49361788  0.88054412    -0.19790
C1507       C  0.69622028  0.23483120  0.57320767    -0.21220
C1508       C  0.73474081  0.24781789  0.56616750    -0.09260
C1509       C  0.76702297  0.26550712  0.58187672     0.29590
C1510       C  0.76073464  0.27236577  0.60406522    -0.21220
C1511       C  0.72214676  0.26072789  0.61068557    -0.09280
C1512       C  0.68989724  0.24082329  0.59526983     0.29600
F1513       F  0.65224974  0.22888668  0.60138125    -0.19800
H1514       H  0.67098934  0.22075081  0.56141789     0.17970
H1515       H  0.78595135  0.28840247  0.61564897     0.17970
F1516       F  0.80467870  0.27860821  0.57538566    -0.19790
C1517       C  0.58363260  0.08472332  0.48008805    -0.21220
C1518       C  0.57050917  0.06275320  0.49976058    -0.09260
C1519       C  0.59482635  0.07592757  0.51939600     0.29590
C1520       C  0.63195063  0.11064279  0.51924855    -0.21220
C1521       C  0.64473382  0.13287862  0.49964766    -0.09280
C1522       C  0.62038878  0.11977271  0.48004643     0.29600
F1523       F  0.63250704  0.14063555  0.46082716    -0.19800
H1524       H  0.56533645  0.07460403  0.46478863     0.17970
H1525       H  0.65025053  0.12078104  0.53455032     0.17970
F1526       F  0.58231692  0.05548369  0.53871086    -0.19790
C1527       C  0.85667555  0.37079246  0.51697945    -0.21220
C1528       C  0.84763525  0.34221932  0.50021692    -0.09260
C1529       C  0.87427233  0.35044281  0.48306137     0.29590
C1530       C  0.90912562  0.38715786  0.48238542    -0.21220
C1531       C  0.91896317  0.41556212  0.49943007    -0.09280
C1532       C  0.89252948  0.40694559  0.51690291     0.29600
F1533       F  0.90178035  0.43305662  0.53409874    -0.19800
H1534       H  0.83646330  0.36462060  0.53043118     0.17970
H1535       H  0.92886129  0.39328652  0.46869428     0.17970
F1536       F  0.86633396  0.32314239  0.46680156    -0.19790
C1537       C  0.72836316  0.39729816  0.58918326    -0.21220
C1538       C  0.71286209  0.41195066  0.60502043    -0.09260
C1539       C  0.70685061  0.44363053  0.59926988     0.29590
C1540       C  0.71518505  0.45953316  0.57786434    -0.21220
C1541       C  0.72855501  0.44344710  0.56171168    -0.09280
C1542       C  0.73574725  0.41261515  0.56754802     0.29600
F1543       F  0.74969789  0.39728017  0.55235061    -0.19800
H1544       H  0.73270437  0.37253973  0.59316411     0.17970
H1545       H  0.70963909  0.48343969  0.57360125     0.17970
F1546       F  0.69185394  0.45846718  0.61412083    -0.19790
C1547       C  0.85597350  0.47255626  0.47973630    -0.21220
C1548       C  0.84788186  0.49106768  0.49724255    -0.09260
C1549       C  0.87684648  0.01051362  0.51448364     0.29590
C1550       C  0.91244096  0.00995736  0.51465896    -0.21220
C1551       C  0.92086272  0.49181247  0.49714213    -0.09280
C1552       C  0.89249644  0.47359081  0.47941321     0.29600
F1553       F  0.89997437  0.45651252  0.46193906    -0.19800
H1554       H  0.83419949  0.45773136  0.46616952     0.17970
H1555       H  0.93311433  0.02295077  0.52883919     0.17970
F1556       F  0.87008980  0.02863531  0.53171533    -0.19790
C1557       C  0.61622312  0.47450531  0.52025393    -0.21220
C1558       C  0.63869200  0.48441468  0.50099670    -0.09260
C1559       C  0.62609151  0.99624945  0.48166937     0.29590
C1560       C  0.59117521  0.99809661  0.48160186    -0.21220
C1561       C  0.56831814  0.48779084  0.50074437    -0.09280
C1562       C  0.58104690  0.47604568  0.52014152     0.29600
F1563       F  0.55962939  0.46650746  0.53893462    -0.19800
H1564       H  0.62604314  0.46577724  0.53532889     0.17970
H1565       H  0.58161786  0.00713392  0.46655064     0.17970
F1566       F  0.64777762  0.00626173  0.46296093    -0.19790
C1567       C  0.60240088  0.27870725  0.58858577    -0.21220
C1568       C  0.58369066  0.28540491  0.60648260    -0.09260
C1569       C  0.54486857  0.27883649  0.60275667     0.29590
C1570       C  0.52616904  0.26735338  0.58135415    -0.21220
C1571       C  0.54615504  0.26298286  0.56334625    -0.09280
C1572       C  0.58415252  0.26793671  0.56735547     0.29600
F1573       F  0.60410073  0.26287796  0.55066775    -0.19800
H1574       H  0.63231813  0.28356784  0.59061092     0.17970
H1575       H  0.49670034  0.26342686  0.57864942     0.17970
F1576       F  0.52546079  0.28450717  0.61948630    -0.19790
C1577       C  0.49366291  0.08215929  0.47839645    -0.21220
C1578       C  0.99777644  0.06558157  0.49853981    -0.09260
C1579       C  0.00470929  0.08673343  0.51874357     0.29590
C1580       C  0.00558212  0.12303009  0.51888955    -0.21220
C1581       C  0.00111959  0.13942486  0.49881073    -0.09280
C1582       C  0.49587583  0.11917654  0.47846945     0.29600
F1583       F  0.49214079  0.13487644  0.45880273    -0.19800
H1584       H  0.48896995  0.06647523  0.46266851     0.17970
H1585       H  0.00988442  0.13847078  0.53466853     0.17970
F1586       F  0.00962249  0.07168207  0.53836998    -0.19790
C1587       C  0.50989690  0.36831097  0.48246075    -0.21220
C1588       C  0.99613151  0.34318658  0.50094532    -0.09260
C1589       C  0.98033318  0.35349883  0.51883997     0.29590
C1590       C  0.97953817  0.38903401  0.51843473    -0.21220
C1591       C  0.99343666  0.41420755  0.49993973    -0.09280
C1592       C  0.50783078  0.40307127  0.48172024     0.29600
F1593       F  0.51938170  0.42561483  0.46307545    -0.19800
H1594       H  0.52138543  0.36048237  0.46831517     0.17970
H1595       H  0.96826252  0.39708681  0.53258581     0.17970
F1596       F  0.96678372  0.32982583  0.53697498    -0.19790
C1597       C  0.91780805  0.03696164  0.07185311    -0.21220
C1598       C  0.94927721  0.03058936  0.06732231    -0.09260
C1599       C  0.97535402  0.03276819  0.08484710     0.29590
C1600       C  0.97053483  0.04197009  0.10654977    -0.21220
C1601       C  0.93957890  0.04915355  0.11121754    -0.09280
C1602       C  0.91312001  0.04660774  0.09365367     0.29600
F1603       F  0.88222563  0.05239572  0.09761308    -0.19800
H1604       H  0.89702783  0.03455310  0.05853184     0.17970
H1605       H  0.49111762  0.04342091  0.11973803     0.17970
F1606       F  0.50438904  0.02408240  0.08115568    -0.19790
C1607       C  0.98404951  0.41224971  0.06800547    -0.21220
C1608       C  0.95107115  0.40360424  0.05364553    -0.09260
C1609       C  0.91337075  0.37209079  0.05914834     0.29590
C1610       C  0.90862535  0.35219297  0.07952066    -0.21220
C1611       C  0.94118442  0.36383208  0.09468299    -0.09280
C1612       C  0.97915504  0.39296498  0.08838178     0.29600
F1613       F  0.01135890  0.40397427  0.10240855    -0.19800
H1614       H  0.51355545  0.43589979  0.06414649     0.17970
H1615       H  0.87908547  0.32971926  0.08416548     0.17970
F1616       F  0.88065898  0.36282039  0.04593050    -0.19790
C1617       C  0.59890396  0.07818010  0.08045070    -0.21220
C1618       C  0.61357108  0.06556082  0.06312668    -0.09260
C1619       C  0.64621657  0.05999481  0.06771738     0.29590
C1620       C  0.66174434  0.06418003  0.08971376    -0.21220
C1621       C  0.64438778  0.07321657  0.10724772    -0.09280
C1622       C  0.61378444  0.08156649  0.10234253     0.29600
F1623       F  0.59779867  0.09240938  0.11880529    -0.19800
H1624       H  0.57449143  0.08363588  0.07718167     0.17970
H1625       H  0.68576266  0.05820705  0.09323399     0.17970
F1626       F  0.66090173  0.04739749  0.05141596    -0.19790
C1627       C  0.68637178  0.20617937  0.19059727    -0.21220
C1628       C  0.68154385  0.18461750  0.17091447    -0.09260
C1629       C  0.67571047  0.19866448  0.15024623     0.29590
C1630       C  0.67393509  0.23360286  0.14938109    -0.21220
C1631       C  0.67902665  0.25537709  0.16904498    -0.09280
C1632       C  0.68563214  0.24167426  0.18966451     0.29600
F1633       F  0.69096533  0.26248025  0.20885426    -0.19800
H1634       H  0.69080379  0.19553991  0.20663305     0.17970
H1635       H  0.66889717  0.24391758  0.13338613     0.17970
F1636       F  0.67127194  0.17829571  0.13099386    -0.19790
C1637       C  0.69291679  0.46699303  0.15240627    -0.21220
C1638       C  0.67446679  0.47488638  0.16984419    -0.09260
C1639       C  0.65519116  0.44579191  0.18611919     0.29590
C1640       C  0.65564221  0.41008863  0.18529573    -0.21220
C1641       C  0.67425659  0.40222913  0.16789424    -0.09280
C1642       C  0.69215108  0.43076885  0.15114691     0.29600
F1643       F  0.70850858  0.42342400  0.13342723    -0.19800
H1644       H  0.70736579  0.98870929  0.13948083     0.17970
H1645       H  0.64179002  0.38863589  0.19841067     0.17970
F1646       F  0.63722803  0.45247397  0.20326874    -0.19790
C1647       C  0.58049325  0.23466299  0.14942028    -0.21220
C1648       C  0.60358837  0.25246315  0.16899699    -0.09260
C1649       C  0.59175973  0.23261228  0.18947418     0.29590
C1650       C  0.55736387  0.19533722  0.19027967    -0.21220
C1651       C  0.53394097  0.17783043  0.17076730    -0.09280
C1652       C  0.54568955  0.19768697  0.15029653     0.29600
F1653       F  0.52373549  0.18099324  0.13114946    -0.19800
H1654       H  0.58945650  0.24952112  0.13351633     0.17970
H1655       H  0.04830250  0.18067453  0.20623517     0.17970
F1656       F  0.61296876  0.24981803  0.20873677    -0.19790
C1657       C  0.77789770  0.41619102  0.15274822    -0.21220
C1658       C  0.75087326  0.40397150  0.17009540    -0.09260
C1659       C  0.76125475  0.42759359  0.18965264     0.29590
C1660       C  0.79800843  0.46285007  0.19168794    -0.21220
C1661       C  0.82503848  0.47452547  0.17443483    -0.09280
C1662       C  0.81479132  0.45100977  0.15494591     0.29600
F1663       F  0.84038061  0.46204795  0.13794031    -0.19800
H1664       H  0.77039789  0.39852603  0.13753377     0.17970
H1665       H  0.80552524  0.48087988  0.20675960     0.17970
F1666       F  0.73617768  0.41609332  0.20691500    -0.19790
C1667       C  0.57302425  0.30990688  0.18173843    -0.21220
C1668       C  0.60013884  0.32530613  0.16444100    -0.09260
C1669       C  0.58965893  0.33874703  0.14485129     0.29590
C1670       C  0.55301433  0.33747323  0.14287887    -0.21220
C1671       C  0.52606896  0.32201719  0.16018739    -0.09280
C1672       C  0.53611553  0.30792648  0.17956506     0.29600
F1673       F  0.01058520  0.29318341  0.19659376    -0.19800
H1674       H  0.58068865  0.29981996  0.19703902     0.17970
H1675       H  0.54571224  0.34872744  0.12791098     0.17970
F1676       F  0.61492476  0.35314015  0.12768815    -0.19790
C1677       C  0.75974364  0.31720152  0.14514596    -0.21220
C1678       C  0.75179109  0.32997330  0.16525228    -0.09260
C1679       C  0.78019570  0.34296743  0.18307930     0.29590
C1680       C  0.81622744  0.34373118  0.18061834    -0.21220
C1681       C  0.82377562  0.33016505  0.16068034    -0.09280
C1682       C  0.79516847  0.31666262  0.14295943     0.29600
F1683       F  0.80192764  0.30389785  0.12339663    -0.19800
H1684       H  0.73834844  0.30756598  0.13114892     0.17970
H1685       H  0.83786685  0.35394043  0.19451252     0.17970
F1686       F  0.77284966  0.35447098  0.20288113    -0.19790
C1687       C  0.85947837  0.27471320  0.25279620    -0.21220
C1688       C  0.88341077  0.26463967  0.26634881    -0.09260
C1689       C  0.91856719  0.26889563  0.25749232     0.29590
C1690       C  0.92861216  0.28185383  0.23547853    -0.21220
C1691       C  0.90394962  0.29078002  0.22203634    -0.09280
C1692       C  0.86957944  0.28756663  0.23087926     0.29600
F1693       F  0.84536044  0.29619969  0.21812570    -0.19800
H1694       H  0.83220429  0.27166177  0.25892084     0.17970
H1695       H  0.95540117  0.28451656  0.22883938     0.17970
F1696       F  0.94290374  0.25991799  0.26984685    -0.19790
C1697       C  0.72125167  0.13857551  0.27016741    -0.21220
C1698       C  0.75140302  0.13150684  0.27839687    -0.09260
C1699       C  0.75917031  0.10505818  0.26652772     0.29590
C1700       C  0.74055027  0.08991700  0.24566882    -0.21220
C1701       C  0.71296704  0.09968784  0.23664438    -0.09280
C1702       C  0.70197820  0.12263119  0.24939717     0.29600
F1703       F  0.67556535  0.13281101  0.24080741    -0.19800
H1704       H  0.71490313  0.15895934  0.27885647     0.17970
H1705       H  0.74888864  0.07185029  0.23611489     0.17970
F1706       F  0.78680655  0.09593291  0.27436014    -0.19790
C1707       C  0.91169357  0.08110226  0.25510345    -0.21220
C1708       C  0.92491943  0.10803634  0.23739389    -0.09260
C1709       C  0.93554590  0.14764374  0.24133146     0.29590
C1710       C  0.92986788  0.15934354  0.26219023    -0.21220
C1711       C  0.91355936  0.13180068  0.27945451    -0.09280
C1712       C  0.90577500  0.09279896  0.27606294     0.29600
F1713       F  0.88895002  0.06515140  0.29220560    -0.19800
H1714       H  0.90356706  0.05047861  0.25230124     0.17970
H1715       H  0.93632743  0.18954378  0.26452078     0.17970
F1716       F  0.95042611  0.17478442  0.22478602    -0.19790
C1717       C  0.95097007  0.20100889  0.39831533    -0.21220
C1718       C  0.91319311  0.19712180  0.39473768    -0.09260
C1719       C  0.89680964  0.20742966  0.41249132     0.29590
C1720       C  0.91629066  0.21847391  0.43342284    -0.21220
C1721       C  0.95284696  0.22033151  0.43729604    -0.09280
C1722       C  0.97084149  0.21279832  0.41938111     0.29600
F1723       F  0.00635375  0.21437790  0.42257172    -0.19800
H1724       H  0.96438393  0.19328221  0.38513496     0.17970
H1725       H  0.90212531  0.22466411  0.44687685     0.17970
F1726       F  0.86035370  0.20391540  0.41039308    -0.19790
C1727       C  0.74854015  0.03310277  0.39813756    -0.21220
C1728       C  0.78458326  0.06894704  0.39658778    -0.09260
C1729       C  0.80825924  0.08680900  0.41593207     0.29590
C1730       C  0.79637585  0.06933466  0.43657511    -0.21220
C1731       C  0.76107176  0.03301422  0.43838214    -0.09280
C1732       C  0.73700059  0.01472281  0.41900540     0.29600
F1733       F  0.70253656  0.47958704  0.42026676    -0.19800
H1734       H  0.73006570  0.01904999  0.38324647     0.17970
H1735       H  0.81565557  0.08383654  0.45115582     0.17970
F1736       F  0.84328206  0.12129054  0.41485460    -0.19790
C1737       C  0.80247846  0.23564833  0.40482156    -0.21220
C1738       C  0.77010935  0.21418755  0.38981510    -0.09260
C1739       C  0.73135472  0.20066315  0.39691914     0.29590
C1740       C  0.72544249  0.20760222  0.41918738    -0.21220
C1741       C  0.75805049  0.22656269  0.43456880    -0.09280
C1742       C  0.79659637  0.24082163  0.42709578     0.29600
F1743       F  0.82859976  0.25868141  0.44152194    -0.19800
H1744       H  0.83252728  0.24663357  0.39948554     0.17970
H1745       H  0.69545193  0.19624388  0.42474094     0.17970
F1746       F  0.69948860  0.17919955  0.38280340    -0.19790
O1747       O  0.89846303  0.62788016  0.31796452    -0.80810
O1748       O  0.78829099  0.67418662  0.37106544    -0.65500
O1749       O  0.83345543  0.63515575  0.33062707    -1.12100
C1750       C  0.86904865  0.74608715  0.28847178     1.06080
O1751       O  0.78088331  0.71852074  0.35066301    -0.78700
O1752       O  0.77056866  0.67510078  0.31043658    -0.66280
Ni1753     Ni  0.86483779  0.61408672  0.34350590     1.34870
C1754       C  0.78016960  0.65743167  0.29609176     0.84820
O1755       O  0.78176242  0.60416000  0.36506370    -0.79240
O1756       O  0.83317654  0.59414165  0.36968017    -0.89520
C1757       C  0.77865535  0.70058585  0.36894480     0.84390
O1758       O  0.90046058  0.66246566  0.35950688    -0.67720
O1759       O  0.83565454  0.74046088  0.29481545    -0.87010
C1760       C  0.88833025  0.67722135  0.37417211     0.85220
C1761       C  0.79944879  0.58848496  0.37527306     1.06790
H1762       H  0.86088149  0.72376613  0.34566243     0.38590
O1763       O  0.83983407  0.70411379  0.33601320    -1.09670
O1764       O  0.81570936  0.66412623  0.29477271    -0.66320
Ni1765     Ni  0.86128945  0.68409583  0.31522319     1.26350
O1766       O  0.85329789  0.67219010  0.37301801    -0.66550
O1767       O  0.88813849  0.73293238  0.29967532    -0.78840
C1768       C  0.89760442  0.64183127  0.29873013     0.84600
O1769       O  0.88187697  0.66297824  0.29488248    -0.66020
Ni1770     Ni  0.80893034  0.72589924  0.32312410     1.27450
Ni1771     Ni  0.81033752  0.65422042  0.35082193     1.26060
H1772       H  0.81266965  0.61475414  0.32112597     0.39150
C1773       C  0.71348490  0.82954172  0.16729421     0.02370
C1774       C  0.71261379  0.86545911  0.16813560     0.02370
C1775       C  0.67543008  0.86439962  0.16753400     0.02370
C1776       C  0.63940169  0.82717542  0.16683799     0.02370
C1777       C  0.64079036  0.79154593  0.16798654     0.02370
C1778       C  0.67771604  0.79281276  0.16798105     0.02370
O1779       O  0.70814483  0.54513430  0.16605283    -0.74340
O1780       O  0.71239283  0.64558436  0.16753774    -0.74370
O1781       O  0.72620942  0.60157573  0.19812007    -0.74430
O1782       O  0.69444213  0.58954734  0.13593414    -0.74480
O1783       O  0.63098519  0.55913142  0.14561132    -0.74410
O1784       O  0.66273458  0.57283611  0.20765487    -0.74390
O1785       O  0.64867829  0.61535986  0.17678273    -0.74360
O1786       O  0.64514097  0.51512034  0.17641683    -0.74430
Ni1787     Ni  0.71262091  0.59643477  0.16665588     1.25410
Ni1788     Ni  0.64461029  0.56430879  0.17694651     1.25360
C1789       C  0.67593967  0.51356016  0.17090711     0.87840
C1790       C  0.68099600  0.64676098  0.17196955     0.87770
C1791       C  0.69986320  0.59040714  0.21302921     0.87800
C1792       C  0.65733630  0.57359285  0.13067986     0.87970
O1793       O  0.95615379  0.79275224  0.15275275    -0.74340
O1794       O  0.85962193  0.79738755  0.15218259    -0.74370
O1795       O  0.91539256  0.81220864  0.12178911    -0.74430
O1796       O  0.89953475  0.77776951  0.18291434    -0.74480
O1797       O  0.93443833  0.84072644  0.19487037    -0.74410
O1798       O  0.94994926  0.87499067  0.13398591    -0.73940
O1799       O  0.89407054  0.85995460  0.16475964    -0.74360
O1800       O  0.99040015  0.85584564  0.16450061    -0.74430
Ni1801     Ni  0.90653373  0.79274510  0.15194639     1.25410
Ni1802     Ni  0.94347761  0.86011736  0.16487060     1.25360
C1803       C  0.98905412  0.82357436  0.15889346     0.87840
C1804       C  0.86098115  0.82921874  0.15890426     0.87770
C1805       C  0.93521196  0.84943877  0.11790664     0.87800
C1806       C  0.91367610  0.80364159  0.19883507     0.87970
O1807       O  0.89516133  0.51178088  0.18152345    -0.74340
O1808       O  0.99533822  0.60932931  0.17991941    -0.74370
O1809       O  0.94001264  0.57234085  0.21110047    -0.74430
O1810       O  0.95086437  0.54878638  0.15060386    -0.74480
O1811       O  0.91683336  0.57755191  0.13809966    -0.74410
O1812       O  0.91168006  0.60661710  0.19831733    -0.74390
O1813       O  0.96394621  0.63962806  0.16548981    -0.74360
O1814       O  0.86378472  0.54416225  0.17057014    -0.74430
Ni1815     Ni  0.94643017  0.55934893  0.18126618     1.25410
Ni1816     Ni  0.91285866  0.59305684  0.16775525     1.25360
C1817       C  0.86311448  0.51203632  0.17599910     0.87840
C1818       C  0.99598291  0.64035015  0.17208174     0.87770
C1819       C  0.92542515  0.59476466  0.21453823     0.87800
C1820       C  0.93536745  0.55886982  0.13441430     0.87970
O1821       O  0.52828512  0.80600715  0.49395273    -0.74340
O1822       O  0.53102305  0.70887124  0.49291947    -0.74370
O1823       O  0.00823364  0.74717321  0.46348597    -0.74430
O1824       O  0.55150530  0.76758211  0.52367960    -0.74480
O1825       O  0.99060388  0.73555400  0.53716606    -0.74410
O1826       O  0.94722532  0.71602545  0.47690108    -0.74390
O1827       O  0.96995878  0.67695710  0.50632663    -0.74360
O1828       O  0.96773408  0.77414465  0.50795328    -0.74430
Ni1829     Ni  0.53199367  0.75862490  0.49310452     1.25410
Ni1830     Ni  0.96668250  0.72446805  0.50751984     1.25360
C1831       C  0.99754076  0.80602473  0.50107085     0.87840
C1832       C  0.00072029  0.67692653  0.49933868     0.87770
C1833       C  0.97041546  0.72824458  0.46031342     0.87800
C1834       C  0.52845822  0.75489658  0.54030622     0.87970
O1835       O  0.80769815  0.51888553  0.50616198    -0.74340
O1836       O  0.70806067  0.51583142  0.50799427    -0.74370
O1837       O  0.75065944  0.99647609  0.53645398    -0.74430
O1838       O  0.76496974  0.53830168  0.47778038    -0.74480
O1839       O  0.73283348  0.97736714  0.46277367    -0.74410
O1840       O  0.72199907  0.93518113  0.52198925    -0.74390
O1841       O  0.67705820  0.95399813  0.49410755    -0.74360
O1842       O  0.77757928  0.95860789  0.49034467    -0.74430
Ni1843     Ni  0.75890450  0.51950430  0.50759774     1.25410
Ni1844     Ni  0.72616177  0.95396993  0.49181495     1.25360
C1845       C  0.80918538  0.98948216  0.49783009     0.87840
C1846       C  0.67632734  0.98450972  0.50126979     0.87770
C1847       C  0.73426514  0.95900925  0.53891053     0.87800
C1848       C  0.75172210  0.51509615  0.46065080     0.87970
C1849       C  0.53052895  0.98860108  0.50011160     0.02370
C1850       C  0.99372055  0.95268567  0.49979377     0.02370
C1851       C  0.95764209  0.95357716  0.49915374     0.02370
C1852       C  0.95865521  0.99057154  0.49814053     0.02370
C1853       C  0.99583435  0.52644694  0.49851567     0.02370
C1854       C  0.53158215  0.52529894  0.49950356     0.02370
O1855       O  0.81230904  0.77228609  0.50389486    -0.74340
O1856       O  0.71517540  0.67217698  0.50477441    -0.74370
O1857       O  0.76759483  0.71585560  0.47289327    -0.74430
O1858       O  0.76059568  0.72909430  0.53585649    -0.74480
O1859       O  0.72358571  0.75690467  0.52784539    -0.74410
O1860       O  0.73397586  0.74723407  0.46489106    -0.74390
O1861       O  0.68086292  0.70237212  0.49545888    -0.74360
O1862       O  0.77726680  0.80267905  0.49732947    -0.74430
Ni1863     Ni  0.76512867  0.72120456  0.50462262     1.25410
Ni1864     Ni  0.72774556  0.75344497  0.49613305     1.25360
C1865       C  0.81059103  0.80388907  0.50060851     0.87840
C1866       C  0.68214593  0.67092426  0.49999343     0.87770
C1867       C  0.75250146  0.72975170  0.45858892     0.87800
C1868       C  0.74031952  0.74470486  0.54215492     0.87970
O1869       O  0.90091681  0.93524749  0.97771525    -0.80810
O1870       O  0.55234377  0.53474564  0.04351993    -0.65500
O1871       O  0.97195016  0.99430945  0.99782163    -1.12100
C1872       C  0.55282427  0.96401133  0.95904254     1.06080
O1873       O  0.60646858  0.55343605  0.02367549    -0.78700
O1874       O  0.57425815  0.56066986  0.98196045    -0.66280
Ni1875     Ni  0.91799228  0.96183124  0.00685621     1.34870
C1876       C  0.54774675  0.54957480  0.96613364     0.84820
O1877       O  0.98766209  0.53899756  0.03620843    -0.79240
O1878       O  0.92652907  0.98682967  0.03612663    -0.89520
C1879       C  0.58966042  0.55099746  0.04203617     0.84390
O1880       O  0.92978129  0.92352798  0.02005107    -0.67720
O1881       O  0.57937670  0.99782552  0.96667966    -0.87010
C1882       C  0.95593059  0.93258025  0.03598619     0.85220
C1883       C  0.95414617  0.51903105  0.04488898     1.06790
H1884       H  0.53590839  0.96909321  0.01419276     0.38590
O1885       O  0.53595033  0.99010729  0.00546556    -1.09670
O1886       O  0.52008888  0.51356632  0.96371134    -0.66320
Ni1887     Ni  0.99542115  0.96814296  0.98287658     1.26350
O1888       O  0.98558276  0.96766655  0.03879351    -0.66550
O1889       O  0.52015736  0.94329210  0.96847327    -0.78840
C1890       C  0.91859854  0.93508111  0.96013042     0.84600
O1891       O  0.95534905  0.94696928  0.96019925    -0.66020
Ni1892     Ni  0.58884577  0.52451741  0.99538837     1.27450
Ni1893     Ni  0.51197819  0.51481239  0.02089651     1.26060
H1894       H  0.97346854  0.51597165  0.98910830     0.39150
O1895       O  0.71440630  0.75871608  0.65020627    -0.80810
O1896       O  0.62139005  0.82047998  0.70785531    -0.65500
O1897       O  0.65597850  0.77413065  0.66569336    -1.12100
C1898       C  0.69716164  0.88999376  0.62580911     1.06080
O1899       O  0.59999223  0.85139666  0.68481965    -0.78700
O1900       O  0.59675206  0.81924241  0.64217198    -0.66280
Ni1901     Ni  0.68619999  0.75081527  0.67780647     1.34870
C1902       C  0.60779040  0.80353496  0.62747260     0.84820
O1903       O  0.60982531  0.74850858  0.70295072    -0.79240
O1904       O  0.65917646  0.73547807  0.70612468    -0.89520
C1905       C  0.60643792  0.84229053  0.70442396     0.84390
O1906       O  0.72633503  0.80028134  0.69127925    -0.67720
O1907       O  0.66526356  0.88708771  0.63288496    -0.87010
C1908       C  0.71750416  0.81755917  0.70621047     0.85220
C1909       C  0.62734483  0.73275667  0.71322730     1.06790
H1910       H  0.68715430  0.86458457  0.67985134     0.38590
O1911       O  0.66527916  0.84436673  0.67083162    -1.09670
O1912       O  0.64162524  0.80593686  0.62883073    -0.66320
Ni1913     Ni  0.68538128  0.82305103  0.65004600     1.26350
O1914       O  0.68344649  0.81460737  0.70680815    -0.66550
O1915       O  0.71349532  0.87177477  0.63468557    -0.78840
C1916       C  0.71452744  0.77500014  0.63159786     0.84600
O1917       O  0.70419759  0.80081523  0.62934446    -0.66020
Ni1918     Ni  0.63364515  0.86624855  0.65903928     1.27450
Ni1919     Ni  0.63749356  0.79645270  0.68692386     1.26060
H1920       H  0.63379079  0.75457992  0.65656511     0.39150
O1921       O  0.84993282  0.96917805  0.82527737    -0.74340
O1922       O  0.85146314  0.87251805  0.82353152    -0.74370
O1923       O  0.83017742  0.91098947  0.79415464    -0.74430
O1924       O  0.87115871  0.92910118  0.85502887    -0.74480
O1925       O  0.80947657  0.89629048  0.86744333    -0.74410
O1926       O  0.76868721  0.87933130  0.80691409    -0.74390
O1927       O  0.78948009  0.83943151  0.83544585    -0.74360
O1928       O  0.78873475  0.93729449  0.83853300    -0.74430
Ni1929     Ni  0.85293716  0.92189494  0.82415701     1.25410
Ni1930     Ni  0.78689423  0.88717835  0.83757186     1.25360
C1931       C  0.81910900  0.96915570  0.83207535     0.87840
C1932       C  0.82044429  0.83992109  0.82834398     0.87770
C1933       C  0.79249845  0.88944201  0.79070244     0.87800
C1934       C  0.84717524  0.91451834  0.87118151     0.87970
C1935       C  0.78472347  0.65420980  0.82926781     0.02370
C1936       C  0.82113643  0.69114539  0.82552684     0.02370
C1937       C  0.85780775  0.68992350  0.82826118     0.02370
C1938       C  0.85731530  0.65341837  0.83042613     0.02370
C1939       C  0.82093194  0.61755766  0.83017036     0.02370
C1940       C  0.78488515  0.61776501  0.82992900     0.02370
O1941       O  0.53821457  0.68374998  0.84902297    -0.74340
O1942       O  0.63658701  0.68200189  0.84918161    -0.74370
O1943       O  0.59479484  0.70001371  0.81853026    -0.74430
O1944       O  0.58070916  0.66614324  0.87971516    -0.74480
O1945       O  0.54498447  0.60336153  0.86767965    -0.74410
O1946       O  0.56425923  0.63695121  0.80678275    -0.74390
O1947       O  0.60267368  0.61843594  0.83843255    -0.74360
O1948       O  0.50602159  0.62179413  0.83544975    -0.74430
Ni1949     Ni  0.58870665  0.68528501  0.84957226     1.25410
Ni1950     Ni  0.55321632  0.61788866  0.83677974     1.25360
C1951       C  0.50610879  0.65322502  0.84159974     0.87840
C1952       C  0.63569739  0.64990457  0.84341279     0.87770
C1953       C  0.58288594  0.67408947  0.80266644     0.87800
C1954       C  0.56044235  0.62900413  0.88369651     0.87970
O1955       O  0.63632143  0.93869556  0.83583230    -0.74340
O1956       O  0.53952379  0.83891376  0.83623046    -0.74370
O1957       O  0.59512676  0.87920701  0.80571426    -0.74430
O1958       O  0.58036390  0.89882175  0.86611412    -0.74480
O1959       O  0.54890878  0.93019616  0.85346215    -0.74410
O1960       O  0.55935490  0.90610761  0.79304690    -0.74390
O1961       O  0.50530982  0.86824931  0.82485728    -0.74360
O1962       O  0.60328536  0.96778172  0.82202591    -0.74430
Ni1963     Ni  0.58898508  0.88782477  0.83637863     1.25410
Ni1964     Ni  0.55292869  0.91911238  0.82289286     1.25360
C1965       C  0.63577390  0.96954387  0.82892478     0.87840
C1966       C  0.50659917  0.83724360  0.83083016     0.87770
C1967       C  0.57958012  0.88915293  0.78948382     0.87800
C1968       C  0.56306198  0.91874892  0.86964997     0.87970
C1969       C  0.94793014  0.64418337  0.81831761    -0.21220
C1970       C  0.96868016  0.65422227  0.83913296    -0.09260
C1971       C  0.95291123  0.66419247  0.85713973     0.29590
C1972       C  0.91628075  0.66296814  0.85437342    -0.21220
C1973       C  0.89551040  0.65287810  0.83348671    -0.09280
C1974       C  0.91217582  0.64432389  0.81534998     0.29600
F1975       F  0.89454333  0.63728321  0.79458504    -0.19800
H1976       H  0.45998450  0.63706598  0.80415472     0.17970
H1977       H  0.90420517  0.67025747  0.86844850     0.17970
F1978       F  0.97233358  0.67401302  0.87747076    -0.19790
C1979       C  0.71267069  0.63020181  0.81940702    -0.21220
C1980       C  0.74606574  0.65209416  0.83391246    -0.09260
C1981       C  0.74214222  0.67160151  0.85258741     0.29590
C1982       C  0.70617765  0.67092286  0.85583047    -0.21220
C1983       C  0.67316077  0.64934652  0.84107899    -0.09280
C1984       C  0.67660166  0.62837603  0.82306569     0.29600
F1985       F  0.64572176  0.60793115  0.80814045    -0.19800
H1986       H  0.71508221  0.61588962  0.80457164     0.17970
H1987       H  0.70405227  0.68711572  0.86987043     0.17970
F1988       F  0.77341836  0.69221106  0.86722677    -0.19790
C1989       C  0.69534686  0.52066952  0.80979025    -0.21220
C1990       C  0.67331398  0.50759122  0.82918894    -0.09260
C1991       C  0.68834534  0.53006869  0.84909554     0.29590
C1992       C  0.72491179  0.56557658  0.84946060    -0.21220
C1993       C  0.74684948  0.57895341  0.82996998    -0.09280
C1994       C  0.73193398  0.55605391  0.81014936     0.29600
F1995       F  0.75230930  0.56862100  0.79101469    -0.19800
H1996       H  0.68421927  0.50338013  0.79439899     0.17970
H1997       H  0.73600657  0.58290563  0.86483299     0.17970
F1998       F  0.66750389  0.51771337  0.86809115    -0.19790
C1999       C  0.95908812  0.77327559  0.81239760    -0.21220
C2000       C  0.96981700  0.79870912  0.83101534    -0.09260
C2001       C  0.94542254  0.78698101  0.84958220     0.29590
C2002       C  0.90989952  0.75041833  0.84919817    -0.21220
C2003       C  0.89786592  0.72598156  0.82994424    -0.09280
C2004       C  0.92328957  0.73718955  0.81174392     0.29600
F2005       F  0.91186997  0.71485949  0.79269008    -0.19800
H2006       H  0.97784348  0.78204798  0.79804433     0.17970
H2007       H  0.89075962  0.74202401  0.86335747     0.17970
F2008       F  0.95556735  0.81125779  0.86778888    -0.19790
C2009       C  0.81225597  0.02171701  0.85142482    -0.21220
C2010       C  0.81855907  0.00642644  0.83178961    -0.09260
C2011       C  0.82521298  0.52740635  0.81174250     0.29590
C2012       C  0.82514785  0.56309457  0.81130617    -0.21220
C2013       C  0.82042522  0.57928189  0.83102663    -0.09280
C2014       C  0.81373902  0.55833507  0.85114087     0.29600
F2015       F  0.80858859  0.57330757  0.87036574    -0.19800
H2016       H  0.80714275  0.00575836  0.86700026     0.17970
H2017       H  0.82855114  0.57804715  0.79552411     0.17970
F2018       F  0.83083220  0.51283940  0.79249096    -0.19790
C2019       C  0.85577698  0.76752260  0.81879572    -0.21220
C2020       C  0.82078816  0.73015478  0.82028562    -0.09260
C2021       C  0.78560196  0.73208974  0.81611101     0.29590
C2022       C  0.78489240  0.76705658  0.82035079    -0.21220
C2023       C  0.82043474  0.80255459  0.82492360    -0.09280
C2024       C  0.85617874  0.80284608  0.82239227     0.29600
F2025       F  0.89170957  0.83721480  0.82260723    -0.19800
H2026       H  0.88305538  0.77142855  0.81310601     0.17970
H2027       H  0.75707949  0.76701900  0.81820697     0.17970
F2028       F  0.75465786  0.70385572  0.80371947    -0.19790
C2029       C  0.72851917  0.81447193  0.74625410    -0.21220
C2030       C  0.74307325  0.83517797  0.72637345    -0.09260
C2031       C  0.77528361  0.87425983  0.72740949     0.29590
C2032       C  0.79217677  0.89234026  0.74838066    -0.21220
C2033       C  0.77597540  0.87192557  0.76830475    -0.09280
C2034       C  0.74448765  0.83247856  0.76694541     0.29600
F2035       F  0.72914475  0.81098035  0.78568996    -0.19800
H2036       H  0.70327579  0.78452964  0.74576398     0.17970
H2037       H  0.81684435  0.92254066  0.74909370     0.17970
F2038       F  0.78900212  0.89532447  0.70839380    -0.19790
C2039       C  0.59337701  0.72891869  0.74858747    -0.21220
C2040       C  0.61267671  0.71451235  0.73525762    -0.09260
C2041       C  0.62077533  0.68565638  0.74413632     0.29590
C2042       C  0.60973634  0.67167289  0.76586769    -0.21220
C2043       C  0.59170231  0.68713001  0.77932637    -0.09280
C2044       C  0.58345708  0.71578422  0.77052055     0.29600
F2045       F  0.56566406  0.73091561  0.78309886    -0.19800
H2046       H  0.58728277  0.75155386  0.74232337     0.17970
H2047       H  0.61648979  0.64968380  0.77249292     0.17970
F2048       F  0.63959618  0.67120075  0.73192477    -0.19790
C2049       C  0.56304677  0.85691427  0.72830195    -0.21220
C2050       C  0.59949979  0.85911820  0.72449954    -0.09260
C2051       C  0.62996815  0.87490250  0.74127011     0.29590
C2052       C  0.62327743  0.88567665  0.76202155    -0.21220
C2053       C  0.58630756  0.88145991  0.76647569    -0.09280
C2054       C  0.55640060  0.86813879  0.74930708     0.29600
F2055       F  0.52021654  0.86366322  0.75326747    -0.19800
H2056       H  0.53934041  0.84482339  0.71552034     0.17970
H2057       H  0.64695277  0.89674100  0.77483973     0.17970
F2058       F  0.66619988  0.87907406  0.73769992    -0.19790
C2059       C  0.86007106  0.92194660  0.93476975    -0.21220
C2060       C  0.89684438  0.92346717  0.93799833    -0.09260
C2061       C  0.91564589  0.91987014  0.91904961     0.29590
C2062       C  0.89926368  0.91729604  0.89756355    -0.21220
C2063       C  0.86342259  0.91730904  0.89428835    -0.09280
C2064       C  0.84331228  0.91863773  0.91312494     0.29600
F2065       F  0.80846669  0.91862070  0.91059043    -0.19800
H2066       H  0.84507402  0.92501864  0.94889664     0.17970
H2067       H  0.91473901  0.91517976  0.88337381     0.17970
F2068       F  0.95056047  0.91986623  0.92108410    -0.19790
C2069       C  0.51603916  0.56488643  0.93379076    -0.21220
C2070       C  0.54974312  0.57700824  0.94821703    -0.09260
C2071       C  0.58572060  0.61088771  0.94269326     0.29590
C2072       C  0.58840852  0.62985799  0.92221441    -0.21220
C2073       C  0.55554936  0.61492228  0.90696449    -0.09280
C2074       C  0.51896394  0.58323128  0.91329753     0.29600
F2075       F  0.48635472  0.56891092  0.89923568    -0.19800
H2076       H  0.98769241  0.53936322  0.93770060     0.17970
H2077       H  0.61689250  0.65437866  0.91757103     0.17970
F2078       F  0.61898566  0.62364288  0.95604213    -0.19790
C2079       C  0.55401578  0.90351056  0.91032680    -0.21220
C2080       C  0.56045047  0.92981709  0.89266460    -0.09260
C2081       C  0.56543190  0.96737146  0.89721326     0.29590
C2082       C  0.56442460  0.97851117  0.91913818    -0.21220
C2083       C  0.55736779  0.95208226  0.93672722    -0.09280
C2084       C  0.55169052  0.91428677  0.93227060     0.29600
F2085       F  0.54440138  0.88819951  0.94909013    -0.19800
H2086       H  0.55007359  0.87443305  0.90704525     0.17970
H2087       H  0.56809958  0.50752860  0.92234753     0.17970
F2088       F  0.57208999  0.99361784  0.88054413    -0.19790
C2089       C  0.69622026  0.73483123  0.57320766    -0.21220
C2090       C  0.73474079  0.74781790  0.56616749    -0.09260
C2091       C  0.76702294  0.76550710  0.58187672     0.29590
C2092       C  0.76073461  0.77236575  0.60406522    -0.21220
C2093       C  0.72214673  0.76072789  0.61068557    -0.09280
C2094       C  0.68989722  0.74082331  0.59526982     0.29600
F2095       F  0.65224972  0.72888673  0.60138123    -0.19800
H2096       H  0.67098932  0.72075086  0.56141787     0.17970
H2097       H  0.78595131  0.78840242  0.61564898     0.17970
F2098       F  0.80467868  0.77860817  0.57538566    -0.19790
C2099       C  0.58363254  0.58472335  0.48008807    -0.21220
C2100       C  0.57050917  0.56275321  0.49976060    -0.09260
C2101       C  0.59482639  0.57592754  0.51939599     0.29590
C2102       C  0.63195067  0.61064276  0.51924854    -0.21220
C2103       C  0.64473381  0.63287863  0.49964766    -0.09280
C2104       C  0.62038872  0.61977275  0.48004644     0.29600
F2105       F  0.63250693  0.64063563  0.46082719    -0.19800
H2106       H  0.56533636  0.57460409  0.46478866     0.17970
H2107       H  0.65025061  0.62078099  0.53455030     0.17970
F2108       F  0.58231702  0.55548363  0.53871086    -0.19790
C2109       C  0.85667554  0.87079247  0.51697943    -0.21220
C2110       C  0.84763525  0.84221932  0.50021691    -0.09260
C2111       C  0.87427235  0.85044279  0.48306138     0.29590
C2112       C  0.90912563  0.88715783  0.48238542    -0.21220
C2113       C  0.91896318  0.91556212  0.49943006    -0.09280
C2114       C  0.89252947  0.90694560  0.51690289     0.29600
F2115       F  0.90178033  0.93305665  0.53409871    -0.19800
H2116       H  0.83646329  0.86462063  0.53043116     0.17970
H2117       H  0.92886131  0.89328649  0.46869428     0.17970
F2118       F  0.86633399  0.82314235  0.46680158    -0.19790
C2119       C  0.72836313  0.89729812  0.58918326    -0.21220
C2120       C  0.71286208  0.91195065  0.60502044    -0.09260
C2121       C  0.70685062  0.94363052  0.59926988     0.29590
C2122       C  0.71518506  0.95953315  0.57786434    -0.21220
C2123       C  0.72855500  0.94344708  0.56171168    -0.09280
C2124       C  0.73574722  0.91261511  0.56754802     0.29600
F2125       F  0.74969783  0.89728012  0.55235061    -0.19800
H2126       H  0.73270433  0.87253969  0.59316411     0.17970
H2127       H  0.70963911  0.98343969  0.57360126     0.17970
F2128       F  0.69185396  0.95846719  0.61412084    -0.19790
C2129       C  0.85597347  0.97255620  0.47973629    -0.21220
C2130       C  0.84788185  0.99106767  0.49724252    -0.09260
C2131       C  0.87684647  0.51051358  0.51448368     0.29590
C2132       C  0.91244094  0.50995732  0.51465900    -0.21220
C2133       C  0.92086271  0.99181247  0.49714210    -0.09280
C2134       C  0.89249641  0.97359077  0.47941319     0.29600
F2135       F  0.89997432  0.95651244  0.46193906    -0.19800
H2136       H  0.83419943  0.95773127  0.46616953     0.17970
H2137       H  0.93311431  0.52295070  0.52883924     0.17970
F2138       F  0.87008975  0.52863520  0.53171540    -0.19790
C2139       C  0.61622313  0.97450534  0.52025394    -0.21220
C2140       C  0.63869199  0.98441467  0.50099671    -0.09260
C2141       C  0.62609153  0.49624950  0.48166938     0.29590
C2142       C  0.59117523  0.49809664  0.48160187    -0.21220
C2143       C  0.56831814  0.98779084  0.50074436    -0.09280
C2144       C  0.58104690  0.97604572  0.52014153     0.29600
F2145       F  0.55962940  0.96650754  0.53893463    -0.19800
H2146       H  0.62604315  0.96577730  0.53532891     0.17970
H2147       H  0.58161788  0.50713398  0.46655066     0.17970
F2148       F  0.64777764  0.50626181  0.46296094    -0.19790
C2149       C  0.60240092  0.77870733  0.58858576    -0.21220
C2150       C  0.58369068  0.78540492  0.60648259    -0.09260
C2151       C  0.54486856  0.77883645  0.60275667     0.29590
C2152       C  0.52616903  0.76735333  0.58135415    -0.21220
C2153       C  0.54615505  0.76298287  0.56334625    -0.09280
C2154       C  0.58415256  0.76793679  0.56735546     0.29600
F2155       F  0.60410080  0.76287810  0.55066773    -0.19800
H2156       H  0.63231819  0.78356797  0.59061090     0.17970
H2157       H  0.49670030  0.76342676  0.57864943     0.17970
F2158       F  0.52546075  0.78450706  0.61948631    -0.19790
C2159       C  0.49366282  0.58215924  0.47839647    -0.21220
C2160       C  0.99777644  0.56558156  0.49853983    -0.09260
C2161       C  0.00470931  0.58673344  0.51874358     0.29590
C2162       C  0.00558213  0.62303010  0.51888956    -0.21220
C2163       C  0.00111956  0.63942484  0.49881074    -0.09280
C2164       C  0.49587572  0.61917648  0.47846947     0.29600
F2165       F  0.49214062  0.63487634  0.45880275    -0.19800
H2166       H  0.48896983  0.56647515  0.46266854     0.17970
H2167       H  0.00988446  0.63847081  0.53466854     0.17970
F2168       F  0.00962254  0.57168210  0.53836999    -0.19790
C2169       C  0.50989690  0.86831097  0.48246074    -0.21220
C2170       C  0.99613153  0.84318660  0.50094532    -0.09260
C2171       C  0.98033321  0.85349886  0.51883998     0.29590
C2172       C  0.97953819  0.88903403  0.51843473    -0.21220
C2173       C  0.99343667  0.91420756  0.49993972    -0.09280
C2174       C  0.50783079  0.90307127  0.48172023     0.29600
F2175       F  0.51938169  0.92561482  0.46307543    -0.19800
H2176       H  0.52138543  0.86048236  0.46831516     0.17970
H2177       H  0.96826255  0.89708683  0.53258581     0.17970
F2178       F  0.96678376  0.82982586  0.53697499    -0.19790
C2179       C  0.91780807  0.53696162  0.07185312    -0.21220
C2180       C  0.94927724  0.53058936  0.06732232    -0.09260
C2181       C  0.97535406  0.53276820  0.08484711     0.29590
C2182       C  0.97053486  0.54197010  0.10654978    -0.21220
C2183       C  0.93957893  0.54915354  0.11121755    -0.09280
C2184       C  0.91312003  0.54660771  0.09365368     0.29600
F2185       F  0.88222564  0.55239568  0.09761309    -0.19800
H2186       H  0.89702785  0.53455306  0.05853185     0.17970
H2187       H  0.49111760  0.54342086  0.11973802     0.17970
F2188       F  0.50438901  0.52408235  0.08115567    -0.19790
C2189       C  0.98404948  0.91224971  0.06800545    -0.21220
C2190       C  0.95107112  0.90360425  0.05364552    -0.09260
C2191       C  0.91337072  0.87209080  0.05914833     0.29590
C2192       C  0.90862532  0.85219299  0.07952065    -0.21220
C2193       C  0.94118439  0.86383208  0.09468298    -0.09280
C2194       C  0.97915502  0.89296497  0.08838176     0.29600
F2195       F  0.01135888  0.90397426  0.10240852    -0.19800
H2196       H  0.51355544  0.93589979  0.06414648     0.17970
H2197       H  0.87908544  0.82971928  0.08416548     0.17970
F2198       F  0.88065894  0.86282041  0.04593050    -0.19790
C2199       C  0.59890394  0.57818007  0.08045070    -0.21220
C2200       C  0.61357106  0.56556080  0.06312668    -0.09260
C2201       C  0.64621656  0.55999480  0.06771738     0.29590
C2202       C  0.66174432  0.56418002  0.08971376    -0.21220
C2203       C  0.64438777  0.57321656  0.10724773    -0.09280
C2204       C  0.61378441  0.58156646  0.10234253     0.29600
F2205       F  0.59779864  0.59240935  0.11880530    -0.19800
H2206       H  0.57449140  0.58363584  0.07718168     0.17970
H2207       H  0.68576265  0.55820704  0.09323399     0.17970
F2208       F  0.66090172  0.54739749  0.05141596    -0.19790
C2209       C  0.68637175  0.70617936  0.19059727    -0.21220
C2210       C  0.68154384  0.68461749  0.17091447    -0.09260
C2211       C  0.67571048  0.69866449  0.15024623     0.29590
C2212       C  0.67393511  0.73360287  0.14938109    -0.21220
C2213       C  0.67902664  0.75537708  0.16904498    -0.09280
C2214       C  0.68563211  0.74167425  0.18966451     0.29600
F2215       F  0.69096529  0.76248024  0.20885426    -0.19800
H2216       H  0.69080374  0.69553989  0.20663305     0.17970
H2217       H  0.66889721  0.74391760  0.13338612     0.17970
F2218       F  0.67127197  0.67829572  0.13099386    -0.19790
C2219       C  0.69291679  0.96699303  0.15240627    -0.21220
C2220       C  0.67446679  0.97488638  0.16984419    -0.09260
C2221       C  0.65519115  0.94579190  0.18611919     0.29590
C2222       C  0.65564220  0.91008862  0.18529572    -0.21220
C2223       C  0.67425659  0.90222913  0.16789423    -0.09280
C2224       C  0.69215107  0.93076885  0.15114691     0.29600
F2225       F  0.70850858  0.92342400  0.13342723    -0.19800
H2226       H  0.70736578  0.48870929  0.13948084     0.17970
H2227       H  0.64179001  0.88863588  0.19841066     0.17970
F2228       F  0.63722802  0.95247397  0.20326873    -0.19790
C2229       C  0.58049326  0.73466297  0.14942027    -0.21220
C2230       C  0.60358836  0.75246314  0.16899698    -0.09260
C2231       C  0.59175972  0.73261227  0.18947417     0.29590
C2232       C  0.55736386  0.69533722  0.19027966    -0.21220
C2233       C  0.53394097  0.67783042  0.17076729    -0.09280
C2234       C  0.54568957  0.69768695  0.15029652     0.29600
F2235       F  0.52373551  0.68099322  0.13114945    -0.19800
H2236       H  0.58945652  0.74952110  0.13351632     0.17970
H2237       H  0.04830250  0.68067455  0.20623517     0.17970
F2238       F  0.61296874  0.74981804  0.20873676    -0.19790
C2239       C  0.77789769  0.91619102  0.15274821    -0.21220
C2240       C  0.75087325  0.90397150  0.17009540    -0.09260
C2241       C  0.76125474  0.92759359  0.18965263     0.29590
C2242       C  0.79800842  0.96285008  0.19168793    -0.21220
C2243       C  0.82503846  0.97452548  0.17443483    -0.09280
C2244       C  0.81479131  0.95100977  0.15494590     0.29600
F2245       F  0.84038060  0.96204795  0.13794030    -0.19800
H2246       H  0.77039788  0.89852603  0.13753377     0.17970
H2247       H  0.80552523  0.98087988  0.20675959     0.17970
F2248       F  0.73617767  0.91609332  0.20691499    -0.19790
C2249       C  0.57302424  0.80990686  0.18173842    -0.21220
C2250       C  0.60013883  0.82530612  0.16444099    -0.09260
C2251       C  0.58965892  0.83874703  0.14485129     0.29590
C2252       C  0.55301432  0.83747322  0.14287886    -0.21220
C2253       C  0.52606894  0.82201717  0.16018738    -0.09280
C2254       C  0.53611551  0.80792646  0.17956505     0.29600
F2255       F  0.01058516  0.79318334  0.19659373    -0.19800
H2256       H  0.58068863  0.79981994  0.19703901     0.17970
H2257       H  0.54571223  0.84872744  0.12791097     0.17970
F2258       F  0.61492476  0.85314015  0.12768815    -0.19790
C2259       C  0.75974364  0.81720154  0.14514595    -0.21220
C2260       C  0.75179109  0.82997330  0.16525228    -0.09260
C2261       C  0.78019569  0.84296742  0.18307930     0.29590
C2262       C  0.81622743  0.84373117  0.18061834    -0.21220
C2263       C  0.82377561  0.83016505  0.16068033    -0.09280
C2264       C  0.79516847  0.81666263  0.14295942     0.29600
F2265       F  0.80192765  0.80389788  0.12339662    -0.19800
H2266       H  0.73834844  0.80756600  0.13114892     0.17970
H2267       H  0.83786684  0.85394040  0.19451252     0.17970
F2268       F  0.77284964  0.85447096  0.20288113    -0.19790
C2269       C  0.85947832  0.77471313  0.25279617    -0.21220
C2270       C  0.88341077  0.76463966  0.26634879    -0.09260
C2271       C  0.91856721  0.76889567  0.25749232     0.29590
C2272       C  0.92861219  0.78185388  0.23547853    -0.21220
C2273       C  0.90394961  0.79078000  0.22203632    -0.09280
C2274       C  0.86957939  0.78756655  0.23087923     0.29600
F2275       F  0.84536036  0.79619955  0.21812566    -0.19800
H2276       H  0.83220422  0.77166164  0.25892080     0.17970
H2277       H  0.95540123  0.78451666  0.22883939     0.17970
F2278       F  0.94290379  0.75991808  0.26984686    -0.19790
C2279       C  0.72125167  0.63857551  0.27016741    -0.21220
C2280       C  0.75140303  0.63150684  0.27839687    -0.09260
C2281       C  0.75917031  0.60505819  0.26652772     0.29590
C2282       C  0.74055028  0.58991700  0.24566881    -0.21220
C2283       C  0.71296705  0.59968784  0.23664438    -0.09280
C2284       C  0.70197821  0.62263119  0.24939717     0.29600
F2285       F  0.67556535  0.63281101  0.24080741    -0.19800
H2286       H  0.71490313  0.65895934  0.27885647     0.17970
H2287       H  0.74888865  0.57185029  0.23611489     0.17970
F2288       F  0.78680655  0.59593292  0.27436014    -0.19790
C2289       C  0.91169359  0.58110228  0.25510345    -0.21220
C2290       C  0.92491946  0.60803635  0.23739389    -0.09260
C2291       C  0.93554592  0.64764375  0.24133146     0.29590
C2292       C  0.92986791  0.65934356  0.26219022    -0.21220
C2293       C  0.91355938  0.63180071  0.27945450    -0.09280
C2294       C  0.90577503  0.59279898  0.27606295     0.29600
F2295       F  0.88895005  0.56515143  0.29220561    -0.19800
H2296       H  0.90356709  0.55047862  0.25230125     0.17970
H2297       H  0.93632745  0.68954379  0.26452078     0.17970
F2298       F  0.95042613  0.67478443  0.22478602    -0.19790
C2299       C  0.95097008  0.70100892  0.39831534    -0.21220
C2300       C  0.91319311  0.69712181  0.39473768    -0.09260
C2301       C  0.89680962  0.70742964  0.41249133     0.29590
C2302       C  0.91629064  0.71847389  0.43342285    -0.21220
C2303       C  0.95284696  0.72033151  0.43729605    -0.09280
C2304       C  0.97084149  0.71279834  0.41938111     0.29600
F2305       F  0.00635376  0.71437794  0.42257171    -0.19800
H2306       H  0.96438395  0.69328227  0.38513496     0.17970
H2307       H  0.90212528  0.72466406  0.44687686     0.17970
F2308       F  0.86035367  0.70391534  0.41039309    -0.19790
C2309       C  0.74854017  0.53310279  0.39813756    -0.21220
C2310       C  0.78458329  0.56894705  0.39658777    -0.09260
C2311       C  0.80825929  0.58680898  0.41593206     0.29590
C2312       C  0.79637591  0.56933465  0.43657511    -0.21220
C2313       C  0.76107180  0.53301423  0.43838213    -0.09280
C2314       C  0.73700061  0.51472283  0.41900540     0.29600
F2315       F  0.70253656  0.97958701  0.42026675    -0.19800
H2316       H  0.73006570  0.51905002  0.38324647     0.17970
H2317       H  0.81565564  0.58383652  0.45115581     0.17970
F2318       F  0.84328213  0.62129051  0.41485458    -0.19790
C2319       C  0.80247848  0.73564832  0.40482157    -0.21220
C2320       C  0.77010937  0.71418756  0.38981510    -0.09260
C2321       C  0.73135474  0.70066317  0.39691913     0.29590
C2322       C  0.72544250  0.70760223  0.41918738    -0.21220
C2323       C  0.75805050  0.72656268  0.43456880    -0.09280
C2324       C  0.79659638  0.74082162  0.42709578     0.29600
F2325       F  0.82859977  0.75868139  0.44152194    -0.19800
H2326       H  0.83252730  0.74663355  0.39948554     0.17970
H2327       H  0.69545194  0.69624391  0.42474094     0.17970
F2328       F  0.69948862  0.67919959  0.38280339    -0.19790
loop_ 
_geom_bond_atom_site_label_1 
_geom_bond_atom_site_label_2 
_geom_bond_distance 
_geom_bond_site_symmetry_2 
_ccdc_geom_bond_type 
O1           Ni7   1.937       .  S
O1           C22   1.274       .  A
O2          Ni25   1.886       .  S
O2           C11   1.264       .  A
O3           Ni7   1.919       .  S
O3          Ni25   1.891       .  S
O3          Ni19   1.906       .  S
O3           H26   0.967       .  S
C4           O21   1.266       .  A
C4           O13   1.275       .  A
C4          C524   1.489       .  S
O5          Ni24   1.945       .  S
O5           C11   1.275       .  A
O6          Ni24   1.923       .  S
O6            C8   1.279       .  A
Ni7          O10   1.930       .  S
Ni7          O12   1.923       .  S
C8           O18   1.276       .  A
C8          C534   1.478       .  S
O9          Ni25   1.907       .  S
O9           C15   1.267       .  A
O10          C15   1.273       .  A
C11         C574   1.470       .  S
O12          C14   1.276       .  A
O13         Ni24   1.945       .  S
C14          O20   1.274       .  A
C14         C554   1.490       .  S
C15         C564   1.461       .  S
H16          O17   0.965       .  S
O17         Ni25   1.922       .  S
O17         Ni19   1.894       .  S
O17         Ni24   1.925       .  S
O18         Ni19   1.926       .  S
Ni19         O23   1.881       .  S
Ni19         O21   1.905       .  S
O20         Ni25   1.928       .  S
C22          O23   1.265       .  A
C22         C547   1.471       .  S
C27         C514   1.490       .  S
C27          C28   1.419       .  A
C27          C32   1.411       .  A
C28         C494   1.493       .  S
C28          C29   1.424       .  A
C29         C477   1.499       .  S
C29          C30   1.424       .  A
C30         C504   1.493       .  S
C30          C31   1.418       .  A
C31         C484   1.487       .  S
C31          C32   1.411       .  A
C32         C467   1.487       .  S
O33         Ni41   1.919       .  S
O33          C43   1.281       .  A
O34         Ni41   1.922       .  S
O34          C44   1.281       .  A
O35         Ni41   1.918       .  S
O35          C45   1.282       .  A
O36         Ni41   1.914       .  S
O36          C46   1.279       .  A
O37         Ni42   1.911       .  S
O37          C46   1.281       .  A
O38         Ni42   1.911       .  S
O38          C45   1.278       .  A
O39         Ni42   1.916       .  S
O39          C44   1.280       .  A
O40         Ni42   1.929       .  S
O40          C43   1.283       .  A
Ni41        Ni42   2.392       .  S
C43        C1056   1.482   1_545  S
C44         C464   1.466       .  S
C45         C537   1.466       .  S
C46         C457   1.468       .  S
O47         Ni55   1.928       .  S
O47          C57   1.282       .  A
O48         Ni55   1.921       .  S
O48          C58   1.282       .  A
O49         Ni55   1.924       .  S
O49          C59   1.281       .  A
O50         Ni55   1.923       .  S
O50          C60   1.282       .  A
O51         Ni56   1.915       .  S
O51          C60   1.279       .  A
O52         Ni56   1.917       .  S
O52          C59   1.282       .  A
O53         Ni56   1.917       .  S
O53          C58   1.281       .  A
O54         Ni56   1.914       .  S
O54          C57   1.279       .  A
Ni55        Ni56   2.392       .  S
C57        C1671   1.470       .  S
C58         C517   1.473       .  S
C59         C447   1.475       .  S
C60         C527   1.467       .  S
O61         Ni69   1.925       .  S
O61          C71   1.282       .  A
O62         Ni69   1.926       .  S
O62          C72   1.283       .  A
O63         Ni69   1.914       .  S
O63          C73   1.279       .  A
O64         Ni69   1.912       .  S
O64          C74   1.282       .  A
O65         Ni70   1.912       .  S
O65          C74   1.280       .  A
O66         Ni70   1.912       .  S
O66          C73   1.281       .  A
O67         Ni70   1.913       .  S
O67          C72   1.279       .  A
O68         Ni70   1.916       .  S
O68          C71   1.279       .  A
Ni69        Ni70   2.390       .  S
C71        C1079   1.469   1_545  S
C72        C1651   1.471       .  S
C73         C544   1.467       .  S
C74         C437   1.475       .  S
O75         Ni83   1.925       .  S
O75        C1249   1.283   1_455  A
O76         Ni83   1.921       .  S
O76        C1250   1.281       .  A
O77       Ni1247   1.914       .  S
O77          C87   1.279       .  A
O78         Ni83   1.917       .  S
O78          C88   1.283       .  A
O79         Ni84   1.917       .  S
O79        C1252   1.280       .  A
O80         Ni84   1.919       .  S
O80          C87   1.284       .  A
O81         Ni84   1.921       .  S
O81          C86   1.281       .  A
O82         Ni84   1.917       .  S
O82          C85   1.280       .  A
Ni83       O1241   1.914       .  S
Ni83      Ni1248   2.390   1_455  S
Ni84      Ni1247   2.390       .  S
C85        O1239   1.283       .  A
C85         C424   1.477       .  S
C86        O1240   1.281       .  A
C86         C417   1.470       .  S
C87         C557   1.476       .  S
C88        O1243   1.280   1_455  A
C88         C407   1.479       .  S
O89         Ni97   1.914       .  S
O89         C681   1.281   1_545  A
O90         Ni97   1.910       .  S
O90         C682   1.278   1_545  A
O91        Ni679   1.900       .  S
O91         C101   1.277       .  A
O92         Ni97   1.898       .  S
O92         C102   1.280       .  A
O93         Ni98   1.919       .  S
O93         C684   1.280       .  A
O94         Ni98   1.922       .  S
O94         C101   1.283       .  A
O95         Ni98   1.919       .  S
O95         C100   1.281       .  A
O96         Ni98   1.920       .  S
O96          C99   1.282       .  A
Ni97        O673   1.900   1_545  S
Ni97       Ni680   2.392   1_545  S
Ni98       Ni679   2.392       .  S
C99         O671   1.281       .  A
C99         C384   1.476       .  S
C100        O672   1.278       .  A
C100        C394   1.461       .  S
C101        C377   1.465       .  S
C102        O675   1.280   1_545  A
C102        C567   1.469       .  S
C103        C397   1.484       .  S
C103       C1268   1.413   1_455  A
C103        C690   1.411       .  A
C104        C427   1.495       .  S
C104        C105   1.419       .  A
C104       C1267   1.413       .  A
C105        C367   1.491       .  S
C105        C106   1.424       .  A
C106        C387   1.493       .  S
C106        C689   1.420       .  A
C107        C414   1.489       .  S
C107        C688   1.420   1_545  A
C107       C1272   1.412       .  A
C108        C354   1.485       .  S
C108        C685   1.411   1_545  A
C108       C1271   1.412   1_455  A
O109       Ni117   1.916       .  S
O109        C119   1.280       .  A
O110       Ni117   1.924       .  S
O110        C120   1.282       .  A
O111       Ni117   1.919       .  S
O111        C121   1.282       .  A
O112       Ni117   1.921       .  S
O112        C122   1.280       .  A
O113       Ni118   1.918       .  S
O113        C122   1.283       .  A
O114       Ni118   1.923       .  S
O114        C121   1.281       .  A
O115       Ni118   1.909       .  S
O115        C120   1.279       .  A
O116       Ni118   1.919       .  S
O116        C119   1.280       .  A
Ni117      Ni118   2.392       .  S
C119        C364   1.467       .  S
C120        C357   1.466       .  S
C121        C577   1.474       .  S
C122        C344   1.473       .  S
O123       Ni129   1.948   1_556  S
O123        C144   1.277       .  A
O124       Ni147   1.879       .  S
O124        C133   1.265       .  A
O125       Ni129   1.924   1_556  S
O125       Ni141   1.917       .  S
O125      Ni1893   1.890   1_556  S
O125        H730   0.966       .  S
C126        O143   1.264       .  A
C126        O135   1.273       .  A
C126        C337   1.460       .  S
O127       Ni146   1.940   1_554  S
O127        C133   1.275       .  A
O128       Ni146   1.925       .  S
O128        C130   1.277       .  A
Ni129       O132   1.942       .  S
Ni129       O134   1.925       .  S
C130        O140   1.275       .  A
C130        C324   1.484       .  S
O131      Ni1311   1.894       .  S
O131        C137   1.264       .  A
O132        C719   1.272       .  A
C133        C454   1.473       .  S
O134        C136   1.280       .  A
O135       Ni728   1.937       .  S
C136        O142   1.279       .  A
C136        C444   1.486       .  S
C137        O714   1.272   1_545  A
C137        C434   1.465       .  S
H138        O139   0.967       .  S
O139       Ni729   1.902       .  S
O139      Ni1305   1.883   1_454  S
O139       Ni728   1.924   1_554  S
O140      Ni1887   1.927   1_445  S
Ni141       O145   1.875       .  S
Ni141      O1886   1.927       .  S
Ni141      O1307   1.900       .  S
Ni141      O1303   1.883   1_556  S
O142      Ni1893   1.932       .  S
O143      Ni1305   1.900   1_455  S
C144        O145   1.261       .  A
C144        C314   1.487       .  S
Ni146       O717   1.937   1_545  S
Ni146       O721   1.924   1_546  S
Ni147      O1295   1.894   1_455  S
Ni147      O1888   1.932   1_445  S
Ni147      O1871   1.890   1_444  S
Ni147       O721   1.902   1_545  S
H148        O707   0.966   1_545  S
O149       Ni155   1.949       .  S
O149        C170   1.275       .  A
O150       Ni173   1.869       .  S
O150        C159   1.260       .  A
O151       Ni155   1.932       .  S
O151       Ni173   1.894       .  S
O151       Ni167   1.919       .  S
O151        H174   0.967       .  S
C152        O169   1.270       .  A
C152        O161   1.275       .  A
C152        C374   1.471       .  S
O153       Ni172   1.947       .  S
O153        C159   1.274       .  A
O154       Ni172   1.927       .  S
O154        C156   1.276       .  A
Ni155       O158   1.951       .  S
Ni155       O160   1.927       .  S
C156        O166   1.271       .  A
C156        C404   1.487       .  S
O157       Ni173   1.897       .  S
O157        C163   1.266       .  A
O158        C163   1.276       .  A
C159        C304   1.467       .  S
O160        C162   1.276       .  A
O161       Ni172   1.931       .  S
C162        O168   1.272       .  A
C162        C284   1.466       .  S
C163        C294   1.482       .  S
H164        O165   0.967       .  S
O165       Ni173   1.899       .  S
O165       Ni167   1.891       .  S
O165       Ni172   1.928       .  S
O166       Ni167   1.914       .  S
Ni167       O171   1.879       .  S
Ni167       O169   1.900       .  S
O168       Ni173   1.922       .  S
C170        O171   1.262       .  A
C170        C347   1.469       .  S
O175       Ni183   1.906       .  S
O175        C185   1.278       .  A
O176       Ni183   1.897       .  S
O176        C186   1.278       .  A
O177       Ni183   1.922       .  S
O177        C187   1.281       .  A
O178       Ni183   1.922       .  S
O178        C188   1.284       .  A
O179       Ni184   1.914       .  S
O179        C188   1.279       .  A
O180       Ni184   1.909       .  S
O180        C187   1.282       .  A
O181       Ni184   1.919       .  S
O181        C186   1.282       .  A
O182       Ni184   1.920       .  S
O182        C185   1.281       .  A
Ni183      Ni184   2.390       .  S
C185        C264   1.464       .  S
C186        C277   1.472       .  S
C187        C287   1.476       .  S
C188        C317   1.479       .  S
C189        C234   1.499       .  S
C189        C190   1.449       .  A
C189        C194   1.424       .  A
C190        C274   1.557       .  S
C190        C191   1.453       .  A
C191        C257   1.485       .  S
C191        C192   1.419       .  A
C192        C227   1.500       .  S
C192        C193   1.404       .  A
C193        C267   1.483       .  S
C193        C194   1.405       .  A
C194        C247   1.494       .  S
O195       Ni203   1.933       .  S
O195        C205   1.284       .  A
O196       Ni203   1.930       .  S
O196        C206   1.283       .  A
O197       Ni203   1.925       .  S
O197        C207   1.283       .  A
O198       Ni203   1.919       .  S
O198        C208   1.280       .  A
O199       Ni204   1.917       .  S
O199        C208   1.282       .  A
O200       Ni204   1.914       .  S
O200        C207   1.280       .  A
O201       Ni204   1.911       .  S
O201        C206   1.280       .  A
O202       Ni204   1.914       .  S
O202        C205   1.280       .  A
Ni203      Ni204   2.389       .  S
C205       C1388   1.477   1_455  S
C206        C237   1.479       .  S
C207        C297   1.473       .  S
C208        C327   1.474       .  S
O209       Ni217   1.914       .  S
O209        C219   1.279       .  A
O210       Ni217   1.912       .  S
O210        C220   1.278       .  A
O211       Ni217   1.909       .  S
O211        C221   1.282       .  A
O212       Ni217   1.910       .  S
O212        C222   1.279       .  A
O213       Ni218   1.909       .  S
O213        C222   1.280       .  A
O214       Ni218   1.915       .  S
O214        C221   1.279       .  A
O215       Ni218   1.924       .  S
O215        C220   1.282       .  A
O216       Ni218   1.927       .  S
O216        C219   1.283       .  A
Ni217      Ni218   2.392       .  S
C219        C826   1.469       .  S
C220       C1418   1.465   1_455  S
C221        C307   1.469       .  S
C222        C334   1.466       .  S
C223        C224   1.403       .  A
C223        C228   1.398       .  A
C223       H1394   1.084       .  S
C224       C1369   1.477       .  S
C224        C225   1.405       .  A
C225        C226   1.404       .  A
C225        F232   1.357       .  S
C226        C227   1.407       .  A
C226        H231   1.083       .  S
C227        C228   1.406       .  A
C228        F229   1.356       .  S
H230       C1387   1.084       .  S
C233        C234   1.408       .  A
C233        C238   1.393       .  A
C233        H240   1.082       .  S
C234        C235   1.409       .  A
C235        C236   1.405       .  A
C235        F242   1.357       .  S
C236        C237   1.406       .  A
C236        H241   1.083       .  S
C237        C238   1.406       .  A
C238        F239   1.358       .  S
C243        C244   1.400       .  A
C243        C248   1.399       .  A
C243        H250   1.083       .  S
C244        C801   1.469   1_545  S
C244        C245   1.405       .  A
C245        C246   1.401       .  A
C245        F252   1.357       .  S
C246        C247   1.404       .  A
C246        H251   1.083       .  S
C247        C248   1.407       .  A
C248        F249   1.357       .  S
C253        C254   1.400       .  A
C253        C258   1.397       .  A
C253        H260   1.084       .  S
C254       C1384   1.465       .  S
C254        C255   1.404       .  A
C255        C256   1.401       .  A
C255        F262   1.357       .  S
C256        C257   1.406       .  A
C256        H261   1.083       .  S
C257        C258   1.410       .  A
C258        F259   1.356       .  S
C263        C264   1.403       .  A
C263        C850   1.400       .  A
C263        H270   1.083       .  S
C264        C847   1.402       .  A
C265        C266   1.393       .  A
C265        C846   1.402       .  A
C265        F272   1.358       .  S
C266        C267   1.400       .  A
C266        H271   1.082       .  S
C267        C268   1.405       .  A
C268        C845   1.400       .  A
C268        F269   1.357       .  S
C273        C274   1.414       .  A
C273        C278   1.387       .  A
C273        H280   1.061       .  S
C274        C275   1.420       .  A
C275        C276   1.402       .  A
C275        F282   1.351       .  S
C276        C277   1.400       .  A
C276        H281   1.083       .  S
C277        C278   1.397       .  A
C278        F279   1.359       .  S
C283        C284   1.400       .  A
C283        C288   1.387       .  A
C283        H290   1.084       .  S
C284        C285   1.405       .  A
C285        C286   1.409       .  A
C285        F292   1.357       .  S
C286        C287   1.409       .  A
C286        H291   1.083       .  S
C287        C288   1.406       .  A
C288        F289   1.358       .  S
C293        C294   1.408       .  A
C293        C298   1.399       .  A
C293        H300   1.083       .  S
C294        C295   1.408       .  A
C295        C296   1.401       .  A
C295        F302   1.357       .  S
C296        C297   1.404       .  A
C296        H301   1.084       .  S
C297        C298   1.402       .  A
C298        F299   1.358       .  S
C303        C304   1.403       .  A
C303        C308   1.406       .  A
C303        H310   1.083       .  S
C304        C305   1.406       .  A
C305        C306   1.386       .  A
C305        F312   1.359       .  S
C306        C307   1.397       .  A
C306        H311   1.084       .  S
C307        C308   1.410       .  A
C308        F309   1.357       .  S
C313        C314   1.407       .  A
C313        C318   1.404       .  A
C313        H320   1.083       .  S
C314        C315   1.414       .  A
C315        C316   1.393       .  A
C315        F322   1.358       .  S
C316        C317   1.400       .  A
C316        H321   1.084       .  S
C317        C318   1.409       .  A
C318        F319   1.357       .  S
C323        C324   1.409       .  A
C323        C328   1.393       .  A
C323       H1494   1.084   1_455  S
C324        C325   1.408       .  A
C325        C326   1.405       .  A
C325        F332   1.357       .  S
C326        C327   1.406       .  A
C326        H331   1.083       .  S
C327        C328   1.401       .  A
C328        F329   1.358   1_455  S
H330       C1487   1.084       .  S
C333        C334   1.405       .  A
C333        C338   1.399       .  A
C333        H340   1.083       .  S
C334        C335   1.404       .  A
C335        C336   1.390       .  A
C335        F342   1.358       .  S
C336        C337   1.401       .  A
C336        H923   1.084       .  S
C337        C338   1.402       .  A
C338        F339   1.357       .  S
H341        C918   1.084   1_545  S
C343        C344   1.399       .  A
C343        C348   1.391       .  A
C343        H350   1.084       .  S
C344        C345   1.410       .  A
C345        C346   1.407       .  A
C345        F352   1.357       .  S
C346        C347   1.403       .  A
C346        H351   1.083       .  S
C347        C348   1.404       .  A
C348        F349   1.358       .  S
C353        C354   1.402       .  A
C353        C358   1.397       .  A
C353        H360   1.083       .  S
C354        C355   1.405       .  A
C355        C356   1.399       .  A
C355        F362   1.357       .  S
C356        C357   1.402       .  A
C356        H361   1.083       .  S
C357        C358   1.404       .  A
C358        F359   1.358       .  S
C363        C364   1.401       .  A
C363        C368   1.400       .  A
C363        H370   1.083       .  S
C364        C365   1.401       .  A
C365        C366   1.394       .  A
C365        F372   1.354       .  S
C366        C367   1.404       .  A
C366        H371   1.083       .  S
C367        C368   1.408       .  A
C368        F369   1.357       .  S
C373        C374   1.406       .  A
C373        C378   1.398       .  A
C373        H380   1.084       .  S
C374        C375   1.406       .  A
C375        C376   1.393       .  A
C375        F382   1.358       .  S
C376        C377   1.402       .  A
C376        H381   1.084       .  S
C377        C378   1.403       .  A
C378        F379   1.358       .  S
C383        C384   1.405       .  A
C383        C388   1.401       .  A
C383        H390   1.083       .  S
C384        C967   1.405       .  A
C385        C386   1.394       .  A
C385        C966   1.405   1_545  A
C385        F392   1.357       .  S
C386        C969   1.403   1_545  A
C386        H391   1.081       .  S
C387        C388   1.408       .  A
C387        C968   1.403       .  A
C388        F389   1.357       .  S
C393        C394   1.401       .  A
C393        C398   1.398       .  A
C393        H400   1.083       .  S
C394        C977   1.402       .  A
C395        C396   1.395       .  A
C395        C976   1.402       .  A
C395        F402   1.358   1_565  S
C396        C979   1.402       .  A
C396        H401   1.083   1_565  S
C397        C398   1.406       .  A
C397        C978   1.402       .  A
C398        F399   1.357       .  S
C403        C404   1.411       .  A
C403        C408   1.390       .  A
C403        H410   1.083       .  S
C404        C405   1.408       .  A
C405        C406   1.406       .  A
C405        F412   1.357       .  S
C406        C407   1.409       .  A
C406        H411   1.083   1_455  S
C407        C408   1.402       .  A
C408        F409   1.358       .  S
C413        C418   1.402       .  A
C413       C1578   1.404       .  A
C413        H420   1.083       .  S
C414        C415   1.406       .  A
C414       C1577   1.404       .  A
C415        C416   1.398       .  A
C415        F422   1.357       .  S
C416        C417   1.401       .  A
C416        H421   1.083       .  S
C417       C1582   1.405       .  A
C418       C1581   1.405   1_655  A
C418        F419   1.357       .  S
C423        C428   1.397       .  A
C423       C1588   1.402   1_455  A
C423        H430   1.083       .  S
C424        C425   1.408       .  A
C424       C1587   1.402       .  A
C425        C426   1.401       .  A
C425        F432   1.357       .  S
C426        C427   1.404       .  A
C426        H431   1.083       .  S
C427       C1592   1.407       .  A
C428       C1591   1.407   1_455  A
C428        F429   1.357       .  S
C433        C434   1.400       .  A
C433        C438   1.401       .  A
C433        H440   1.083       .  S
C434        C435   1.403       .  A
C435        C436   1.391       .  A
C435       F1606   1.356       .  S
C436        C437   1.403       .  A
C436       H1605   1.083       .  S
C437        C438   1.411       .  A
C438        F439   1.357       .  S
H441       C1600   1.083       .  S
F442       C1599   1.356   1_455  S
C443        C444   1.409       .  A
C443        C448   1.394       .  A
C443       H1614   1.084       .  S
C444        C445   1.410       .  A
C445        C446   1.406       .  A
C445        F452   1.357       .  S
C446        C447   1.405       .  A
C446        H451   1.083       .  S
C447        C448   1.401       .  A
C448        F449   1.358       .  S
H450       C1607   1.084   1_455  S
C453        C454   1.403       .  A
C453        C458   1.390       .  A
C453        H460   1.083       .  S
C454        C455   1.408       .  A
C455        C456   1.401       .  A
C455        F462   1.357       .  S
C456        C457   1.404       .  A
C456        H461   1.083       .  S
C457        C458   1.403       .  A
C458        F459   1.358       .  S
C463        C464   1.401       .  A
C463        C468   1.399       .  A
C463        H470   1.083       .  S
C464        C465   1.404       .  A
C465        C466   1.399       .  A
C465        F472   1.358       .  S
C466        C467   1.403       .  A
C466        H471   1.083       .  S
C467        C468   1.405       .  A
C468        F469   1.357       .  S
C473        C474   1.405       .  A
C473        C478   1.400       .  A
C473       H1062   1.083       .  S
C474        C625   1.482       .  S
C474        C475   1.406       .  A
C475        C476   1.402       .  A
C475        F482   1.357       .  S
C476        C477   1.407       .  A
C476        H481   1.083       .  S
C477        C478   1.408       .  A
C478        F479   1.357       .  S
H480       C1055   1.083       .  S
C483        C484   1.402       .  A
C483        C488   1.400       .  A
C483        H490   1.083       .  S
C484        C485   1.406       .  A
C485        C486   1.399       .  A
C485        F492   1.357       .  S
C486        C487   1.402       .  A
C486       H1655   1.083       .  S
C487       C1236   1.471   1_455  S
C487        C488   1.406       .  A
C488        F489   1.357       .  S
H491       C1650   1.083       .  S
C493        C494   1.405       .  A
C493        C498   1.397       .  A
C493        H500   1.083       .  S
C494        C495   1.408       .  A
C495        C496   1.402       .  A
C495        F502   1.357       .  S
C496        C497   1.402       .  A
C496        H501   1.083       .  S
C497        C653   1.469       .  S
C497        C498   1.403       .  A
C498        F499   1.358       .  S
C503        C504   1.405       .  A
C503        C508   1.399       .  A
C503        H510   1.082       .  S
C504        C505   1.408       .  A
C505        C506   1.401       .  A
C505        F512   1.357       .  S
C506        C507   1.402       .  A
C506        H511   1.083       .  S
C507       C1221   1.470   1_455  S
C507        C508   1.403       .  A
C508       F1673   1.357       .  S
F509       C1672   1.357       .  S
C513        C514   1.405       .  A
C513        C518   1.398       .  A
C513        H520   1.083       .  S
C514        C515   1.404       .  A
C515        C516   1.399       .  A
C515        F522   1.357       .  S
C516        C517   1.405       .  A
C516        H521   1.083       .  S
C517        C518   1.404       .  A
C518        F519   1.358       .  S
C523        C524   1.408       .  A
C523        C528   1.396       .  A
C523        H530   1.083       .  S
C524        C525   1.414       .  A
C525        C526   1.402       .  A
C525        F532   1.357       .  S
C526        C527   1.400       .  A
C526        H531   1.083       .  S
C527        C528   1.401       .  A
C528        F529   1.358       .  S
C533        C534   1.404       .  A
C533        C538   1.401       .  A
C533        H540   1.083       .  S
C534        C535   1.412       .  A
C535        C536   1.393       .  A
C535        F542   1.358       .  S
C536        C537   1.397       .  A
C536        H541   1.084       .  S
C537        C538   1.407       .  A
C538        F539   1.358       .  S
C543        C544   1.403       .  A
C543        C548   1.401       .  A
C543        H550   1.083       .  S
C544        C545   1.403       .  A
C545        C546   1.392       .  A
C545        F552   1.358       .  S
C546        C547   1.403       .  A
C546        H551   1.082       .  S
C547        C548   1.408       .  A
C548        F549   1.358       .  S
C553        C554   1.407       .  A
C553        C558   1.405       .  A
C553        H560   1.083       .  S
C554        C555   1.415       .  A
C555        C556   1.391       .  A
C555        F562   1.355       .  S
C556        C557   1.397       .  A
C556        H561   1.084       .  S
C557        C558   1.409       .  A
C558        F559   1.357       .  S
C563        C564   1.403       .  A
C563        C568   1.405       .  A
C563        H570   1.083       .  S
C564        C565   1.399       .  A
C565        C566   1.383       .  A
C565        F572   1.354       .  S
C566        C567   1.400       .  A
C566        H571   1.084       .  S
C567        C568   1.410       .  A
C568       F1151   1.357   1_545  S
F569       C1150   1.357       .  S
C573        C574   1.400       .  A
C573        C578   1.391       .  A
C573        H580   1.083       .  S
C574        C575   1.405       .  A
C575        C576   1.409       .  A
C575        F582   1.357       .  S
C576        C577   1.408       .  A
C576        H581   1.083       .  S
C577        C578   1.401       .  A
C578        F579   1.355       .  S
O583       Ni589   1.937       .  S
O583        C604   1.274       .  A
O584       Ni607   1.886       .  S
O584        C593   1.264       .  A
O585       Ni589   1.919       .  S
O585       Ni607   1.891       .  S
O585       Ni601   1.906       .  S
O585        H608   0.967       .  S
C586        O603   1.266       .  A
C586        O595   1.275       .  A
C586       C1106   1.489       .  S
O587       Ni606   1.945       .  S
O587        C593   1.275       .  A
O588       Ni606   1.923       .  S
O588        C590   1.279       .  A
Ni589       O592   1.930       .  S
Ni589       O594   1.923       .  S
C590        O600   1.276       .  A
C590       C1116   1.478       .  S
O591       Ni607   1.907       .  S
O591        C597   1.267       .  A
O592        C597   1.273       .  A
C593       C1156   1.470       .  S
O594        C596   1.276       .  A
O595       Ni606   1.945       .  S
C596        O602   1.274       .  A
C596       C1136   1.490       .  S
C597       C1146   1.461       .  S
H598        O599   0.965       .  S
O599       Ni607   1.922       .  S
O599       Ni601   1.894       .  S
O599       Ni606   1.925       .  S
O600       Ni601   1.926       .  S
Ni601       O605   1.881       .  S
Ni601       O603   1.905       .  S
O602       Ni607   1.928       .  S
C604        O605   1.265       .  A
C604       C1129   1.471       .  S
C609       C1096   1.490       .  S
C609        C610   1.419       .  A
C609        C614   1.411       .  A
C610       C1076   1.493       .  S
C610        C611   1.424       .  A
C611       C1059   1.499       .  S
C611        C612   1.424       .  A
C612       C1086   1.493       .  S
C612        C613   1.418       .  A
C613       C1066   1.487       .  S
C613        C614   1.411       .  A
C614       C1049   1.487       .  S
O615       Ni623   1.919       .  S
O615        C625   1.281       .  A
O616       Ni623   1.922       .  S
O616        C626   1.281       .  A
O617       Ni623   1.918       .  S
O617        C627   1.282       .  A
O618       Ni623   1.914       .  S
O618        C628   1.279       .  A
O619       Ni624   1.911       .  S
O619        C628   1.281       .  A
O620       Ni624   1.911       .  S
O620        C627   1.278       .  A
O621       Ni624   1.916       .  S
O621        C626   1.280       .  A
O622       Ni624   1.929       .  S
O622        C625   1.283       .  A
Ni623      Ni624   2.392       .  S
C626       C1046   1.466       .  S
C627       C1119   1.466       .  S
C628       C1039   1.468       .  S
O629       Ni637   1.928       .  S
O629        C639   1.282       .  A
O630       Ni637   1.921       .  S
O630        C640   1.282       .  A
O631       Ni637   1.924       .  S
O631        C641   1.281       .  A
O632       Ni637   1.923       .  S
O632        C642   1.282       .  A
O633       Ni638   1.915       .  S
O633        C642   1.279       .  A
O634       Ni638   1.917       .  S
O634        C641   1.282       .  A
O635       Ni638   1.917       .  S
O635        C640   1.281       .  A
O636       Ni638   1.914       .  S
O636        C639   1.279       .  A
Ni637      Ni638   2.392       .  S
C639       C2253   1.470       .  S
C640       C1099   1.473       .  S
C641       C1029   1.475       .  S
C642       C1109   1.467       .  S
O643       Ni651   1.925       .  S
O643        C653   1.282       .  A
O644       Ni651   1.926       .  S
O644        C654   1.283       .  A
O645       Ni651   1.914       .  S
O645        C655   1.279       .  A
O646       Ni651   1.912       .  S
O646        C656   1.282       .  A
O647       Ni652   1.912       .  S
O647        C656   1.280       .  A
O648       Ni652   1.912       .  S
O648        C655   1.281       .  A
O649       Ni652   1.913       .  S
O649        C654   1.279       .  A
O650       Ni652   1.916       .  S
O650        C653   1.279       .  A
Ni651      Ni652   2.390       .  S
C654       C2233   1.471       .  S
C655       C1126   1.467       .  S
C656       C1019   1.475       .  S
O657       Ni665   1.925       .  S
O657       C1831   1.283   1_455  A
O658       Ni665   1.921       .  S
O658       C1832   1.281       .  A
O659      Ni1829   1.914       .  S
O659        C669   1.279       .  A
O660       Ni665   1.917       .  S
O660        C670   1.283       .  A
O661       Ni666   1.917       .  S
O661       C1834   1.280       .  A
O662       Ni666   1.919       .  S
O662        C669   1.284       .  A
O663       Ni666   1.921       .  S
O663        C668   1.281       .  A
O664       Ni666   1.917       .  S
O664        C667   1.280       .  A
Ni665      O1823   1.914       .  S
Ni665     Ni1830   2.390   1_455  S
Ni666     Ni1829   2.390       .  S
C667       O1821   1.283       .  A
C667       C1006   1.477       .  S
C668       O1822   1.281       .  A
C668        C999   1.470       .  S
C669       C1139   1.476       .  S
C670       O1825   1.280   1_455  A
C670        C989   1.479       .  S
O671       Ni679   1.914       .  S
O672       Ni679   1.910       .  S
O673        C683   1.277       .  A
O674       Ni679   1.898       .  S
O674        C684   1.280       .  A
O675       Ni680   1.919       .  S
O676       Ni680   1.922       .  S
O676        C683   1.283       .  A
O677       Ni680   1.919       .  S
O677        C682   1.281       .  A
O678       Ni680   1.920       .  S
O678        C681   1.282       .  A
C681        C966   1.476       .  S
C682        C976   1.461       .  S
C683        C959   1.465       .  S
C684       C1149   1.469       .  S
C685        C979   1.484       .  S
C685       C1850   1.413   1_455  A
C686       C1009   1.495       .  S
C686       C1849   1.413       .  A
C686        C687   1.419       .  A
C687        C949   1.491       .  S
C687        C688   1.424       .  A
C688        C969   1.493       .  S
C689        C996   1.489       .  S
C689       C1854   1.412       .  A
C690        C936   1.485       .  S
C690       C1853   1.412   1_455  A
O691       Ni699   1.916       .  S
O691        C701   1.280       .  A
O692       Ni699   1.924       .  S
O692        C702   1.282       .  A
O693       Ni699   1.919       .  S
O693        C703   1.282       .  A
O694       Ni699   1.921       .  S
O694        C704   1.280       .  A
O695       Ni700   1.918       .  S
O695        C704   1.283       .  A
O696       Ni700   1.923       .  S
O696        C703   1.281       .  A
O697       Ni700   1.909       .  S
O697        C702   1.279       .  A
O698       Ni700   1.919       .  S
O698        C701   1.280       .  A
Ni699      Ni700   2.392       .  S
C701        C946   1.467       .  S
C702        C939   1.466       .  S
C703       C1159   1.474       .  S
C704        C926   1.473       .  S
O705       Ni711   1.948   1_556  S
O705        C726   1.277       .  A
O706       Ni729   1.879       .  S
O706        C715   1.265       .  A
O707       Ni711   1.924   1_556  S
O707      Ni1311   1.890   1_566  S
O707       Ni723   1.917       .  S
C708        O725   1.264       .  A
C708        O717   1.273       .  A
C708        C919   1.460       .  S
O709       Ni728   1.940   1_554  S
O709        C715   1.275       .  A
O710       Ni728   1.925       .  S
O710        C712   1.277       .  A
Ni711       O714   1.942       .  S
Ni711       O716   1.925       .  S
C712        O722   1.275       .  A
C712        C906   1.484       .  S
O713      Ni1893   1.894       .  S
O713        C719   1.264       .  A
C715       C1036   1.473       .  S
O716        C718   1.280       .  A
C718        O724   1.279       .  A
C718       C1026   1.486       .  S
C719       C1016   1.465       .  S
H720        O721   0.967       .  S
O721      Ni1887   1.883   1_454  S
O722      Ni1305   1.927   1_455  S
Ni723      O1304   1.927   1_565  S
Ni723       O727   1.875       .  S
Ni723      O1889   1.900       .  S
Ni723      O1885   1.883   1_556  S
O724      Ni1311   1.932   1_565  S
O725      Ni1887   1.900   1_455  S
C726        O727   1.261       .  A
C726        C896   1.487       .  S
Ni729      O1877   1.894   1_455  S
Ni729      O1306   1.932   1_455  S
Ni729      O1289   1.890   1_454  S
O731       Ni737   1.949       .  S
O731        C752   1.275       .  A
O732       Ni755   1.869       .  S
O732        C741   1.260       .  A
O733       Ni737   1.932       .  S
O733       Ni755   1.894       .  S
O733       Ni749   1.919       .  S
O733        H756   0.967       .  S
C734        O751   1.270       .  A
C734        O743   1.275       .  A
C734        C956   1.471       .  S
O735       Ni754   1.947       .  S
O735        C741   1.274       .  A
O736       Ni754   1.927       .  S
O736        C738   1.276       .  A
Ni737       O740   1.951       .  S
Ni737       O742   1.927       .  S
C738        O748   1.271       .  A
C738        C986   1.487       .  S
O739       Ni755   1.897       .  S
O739        C745   1.266       .  A
O740        C745   1.276       .  A
C741        C886   1.467       .  S
O742        C744   1.276       .  A
O743       Ni754   1.931       .  S
C744        O750   1.272       .  A
C744        C866   1.466       .  S
C745        C876   1.482       .  S
H746        O747   0.967       .  S
O747       Ni755   1.899       .  S
O747       Ni749   1.891       .  S
O747       Ni754   1.928       .  S
O748       Ni749   1.914       .  S
Ni749       O753   1.879       .  S
Ni749       O751   1.900       .  S
O750       Ni755   1.922       .  S
C752        O753   1.262       .  A
C752        C929   1.469       .  S
O757       Ni765   1.906       .  S
O757        C767   1.278       .  A
O758       Ni765   1.897       .  S
O758        C768   1.278       .  A
O759       Ni765   1.922       .  S
O759        C769   1.281       .  A
O760       Ni765   1.922       .  S
O760        C770   1.284       .  A
O761       Ni766   1.914       .  S
O761        C770   1.279       .  A
O762       Ni766   1.909       .  S
O762        C769   1.282       .  A
O763       Ni766   1.919       .  S
O763        C768   1.282       .  A
O764       Ni766   1.920       .  S
O764        C767   1.281       .  A
Ni765      Ni766   2.390       .  S
C767        C846   1.464   1_565  S
C768        C859   1.472       .  S
C769        C869   1.476       .  S
C770        C899   1.479       .  S
C771        C816   1.499       .  S
C771        C772   1.449       .  A
C771        C776   1.424       .  A
C772        C856   1.557       .  S
C772        C773   1.453       .  A
C773        C839   1.485       .  S
C773        C774   1.419       .  A
C774        C809   1.500       .  S
C774        C775   1.404       .  A
C775        C849   1.483       .  S
C775        C776   1.405       .  A
C776        C829   1.494       .  S
O777       Ni785   1.933       .  S
O777        C787   1.284       .  A
O778       Ni785   1.930       .  S
O778        C788   1.283       .  A
O779       Ni785   1.925       .  S
O779        C789   1.283       .  A
O780       Ni785   1.919       .  S
O780        C790   1.280       .  A
O781       Ni786   1.917       .  S
O781        C790   1.282       .  A
O782       Ni786   1.914       .  S
O782        C789   1.280       .  A
O783       Ni786   1.911       .  S
O783        C788   1.280       .  A
O784       Ni786   1.914       .  S
O784        C787   1.280       .  A
Ni785      Ni786   2.389       .  S
C787       C1970   1.477   1_455  S
C788        C819   1.479       .  S
C789        C879   1.473       .  S
C790        C909   1.474       .  S
O791       Ni799   1.914       .  S
O791        C801   1.279       .  A
O792       Ni799   1.912       .  S
O792        C802   1.278       .  A
O793       Ni799   1.909       .  S
O793        C803   1.282       .  A
O794       Ni799   1.910       .  S
O794        C804   1.279       .  A
O795       Ni800   1.909       .  S
O795        C804   1.280       .  A
O796       Ni800   1.915       .  S
O796        C803   1.279       .  A
O797       Ni800   1.924       .  S
O797        C802   1.282       .  A
O798       Ni800   1.927       .  S
O798        C801   1.283       .  A
Ni799      Ni800   2.392       .  S
C802       C2000   1.465   1_455  S
C803        C889   1.469       .  S
C804        C916   1.466       .  S
C805        C806   1.403       .  A
C805        C810   1.398       .  A
C805       H1976   1.084       .  S
C806       C1951   1.477       .  S
C806        C807   1.405       .  A
C807        C808   1.404       .  A
C807        F814   1.357       .  S
C808        C809   1.407       .  A
C808        H813   1.083       .  S
C809        C810   1.406       .  A
C810        F811   1.356       .  S
H812       C1969   1.084       .  S
C815        C816   1.408       .  A
C815        C820   1.393       .  A
C815        H822   1.082       .  S
C816        C817   1.409       .  A
C817        C818   1.405       .  A
C817        F824   1.357       .  S
C818        C819   1.406       .  A
C818        H823   1.083       .  S
C819        C820   1.406       .  A
C820        F821   1.358       .  S
C825        C826   1.400       .  A
C825        C830   1.399       .  A
C825        H832   1.083       .  S
C826        C827   1.405       .  A
C827        C828   1.401       .  A
C827        F834   1.357       .  S
C828        C829   1.404       .  A
C828        H833   1.083       .  S
C829        C830   1.407       .  A
C830        F831   1.357       .  S
C835        C836   1.400       .  A
C835        C840   1.397       .  A
C835        H842   1.084       .  S
C836       C1966   1.465       .  S
C836        C837   1.404       .  A
C837        C838   1.401       .  A
C837        F844   1.357       .  S
C838        C839   1.406       .  A
C838        H843   1.083       .  S
C839        C840   1.410       .  A
C840        F841   1.356       .  S
C845        C846   1.403       .  A
C845        H852   1.083       .  S
C847        C848   1.393       .  A
C847        F854   1.358       .  S
C848        C849   1.400       .  A
C848        H853   1.082       .  S
C849        C850   1.405       .  A
C850        F851   1.357       .  S
C855        C856   1.414       .  A
C855        C860   1.387       .  A
C855        H862   1.061       .  S
C856        C857   1.420       .  A
C857        C858   1.402       .  A
C857        F864   1.351       .  S
C858        C859   1.400       .  A
C858        H863   1.083       .  S
C859        C860   1.397       .  A
C860        F861   1.359       .  S
C865        C866   1.400       .  A
C865        C870   1.387       .  A
C865        H872   1.084       .  S
C866        C867   1.405       .  A
C867        C868   1.409       .  A
C867        F874   1.357       .  S
C868        C869   1.409       .  A
C868        H873   1.083       .  S
C869        C870   1.406       .  A
C870        F871   1.358       .  S
C875        C876   1.408       .  A
C875        C880   1.399       .  A
C875        H882   1.083       .  S
C876        C877   1.408       .  A
C877        C878   1.401       .  A
C877        F884   1.357       .  S
C878        C879   1.404       .  A
C878        H883   1.084       .  S
C879        C880   1.402       .  A
C880        F881   1.358       .  S
C885        C886   1.403       .  A
C885        C890   1.406       .  A
C885        H892   1.083       .  S
C886        C887   1.406       .  A
C887        C888   1.386       .  A
C887        F894   1.359       .  S
C888        C889   1.397       .  A
C888        H893   1.084       .  S
C889        C890   1.410       .  A
C890        F891   1.357       .  S
C895        C896   1.407       .  A
C895        C900   1.404       .  A
C895        H902   1.083       .  S
C896        C897   1.414       .  A
C897        C898   1.393       .  A
C897        F904   1.358       .  S
C898        C899   1.400       .  A
C898        H903   1.084       .  S
C899        C900   1.409       .  A
C900        F901   1.357       .  S
C905        C906   1.409       .  A
C905        C910   1.393       .  A
C905       H2076   1.084   1_455  S
C906        C907   1.408       .  A
C907        C908   1.405       .  A
C907        F914   1.357       .  S
C908        C909   1.406       .  A
C908        H913   1.083       .  S
C909        C910   1.401       .  A
C910        F911   1.358   1_455  S
H912       C2069   1.084       .  S
C915        C916   1.405       .  A
C915        C920   1.399       .  A
C915        H922   1.083       .  S
C916        C917   1.404       .  A
C917        C918   1.390       .  A
C917        F924   1.358       .  S
C918        C919   1.401       .  A
C919        C920   1.402       .  A
C920        F921   1.357       .  S
C925        C926   1.399       .  A
C925        C930   1.391       .  A
C925        H932   1.084       .  S
C926        C927   1.410       .  A
C927        C928   1.407       .  A
C927        F934   1.357       .  S
C928        C929   1.403       .  A
C928        H933   1.083       .  S
C929        C930   1.404       .  A
C930        F931   1.358       .  S
C935        C936   1.402       .  A
C935        C940   1.397       .  A
C935        H942   1.083       .  S
C936        C937   1.405       .  A
C937        C938   1.399       .  A
C937        F944   1.357       .  S
C938        C939   1.402       .  A
C938        H943   1.083       .  S
C939        C940   1.404       .  A
C940        F941   1.358       .  S
C945        C946   1.401       .  A
C945        C950   1.400       .  A
C945        H952   1.083       .  S
C946        C947   1.401       .  A
C947        C948   1.394       .  A
C947        F954   1.354       .  S
C948        C949   1.404       .  A
C948        H953   1.083       .  S
C949        C950   1.408       .  A
C950        F951   1.357       .  S
C955        C956   1.406       .  A
C955        C960   1.398       .  A
C955        H962   1.084       .  S
C956        C957   1.406       .  A
C957        C958   1.393       .  A
C957        F964   1.358       .  S
C958        C959   1.402       .  A
C958        H963   1.084       .  S
C959        C960   1.403       .  A
C960        F961   1.358       .  S
C965        C966   1.405       .  A
C965        C970   1.401       .  A
C965        H972   1.083       .  S
C967        C968   1.394       .  A
C967        F974   1.357       .  S
C968        H973   1.081       .  S
C969        C970   1.408       .  A
C970        F971   1.357       .  S
C975        C976   1.401       .  A
C975        C980   1.398       .  A
C975        H982   1.083       .  S
C977        C978   1.395       .  A
C977        F984   1.358       .  S
C978        H983   1.083       .  S
C979        C980   1.406       .  A
C980        F981   1.357       .  S
C985        C986   1.411       .  A
C985        C990   1.390       .  A
C985        H992   1.083       .  S
C986        C987   1.408       .  A
C987        C988   1.406       .  A
C987        F994   1.357       .  S
C988        C989   1.409       .  A
C988        H993   1.083   1_455  S
C989        C990   1.402       .  A
C990        F991   1.358       .  S
C995       C2160   1.404       .  A
C995       C1000   1.402       .  A
C995       H1002   1.083       .  S
C996       C2159   1.404       .  A
C996        C997   1.406       .  A
C997        C998   1.398       .  A
C997       F1004   1.357       .  S
C998        C999   1.401       .  A
C998       H1003   1.083       .  S
C999       C2164   1.405       .  A
C1000      C2163   1.405   1_655  A
C1000      F1001   1.357       .  S
C1005      C2170   1.402   1_455  A
C1005      C1010   1.397       .  A
C1005      H1012   1.083       .  S
C1006      C2169   1.402       .  A
C1006      C1007   1.408       .  A
C1007      C1008   1.401       .  A
C1007      F1014   1.357       .  S
C1008      C1009   1.404       .  A
C1008      H1013   1.083       .  S
C1009      C2174   1.407       .  A
C1010      C2173   1.407   1_455  A
C1010      F1011   1.357       .  S
C1015      C1016   1.400       .  A
C1015      C1020   1.401       .  A
C1015      H1022   1.083       .  S
C1016      C1017   1.403       .  A
C1017      C1018   1.391       .  A
C1017      F2188   1.356       .  S
C1018      C1019   1.403       .  A
C1018      H2187   1.083       .  S
C1019      C1020   1.411       .  A
C1020      F1021   1.357       .  S
H1023      C2182   1.083       .  S
F1024      C2181   1.356   1_455  S
C1025      C1026   1.409       .  A
C1025      C1030   1.394       .  A
C1025      H2196   1.084       .  S
C1026      C1027   1.410       .  A
C1027      C1028   1.406       .  A
C1027      F1034   1.357       .  S
C1028      C1029   1.405       .  A
C1028      H1033   1.083       .  S
C1029      C1030   1.401       .  A
C1030      F1031   1.358       .  S
H1032      C2189   1.084   1_455  S
C1035      C1036   1.403       .  A
C1035      C1040   1.390       .  A
C1035      H1042   1.083       .  S
C1036      C1037   1.408       .  A
C1037      C1038   1.401       .  A
C1037      F1044   1.357       .  S
C1038      C1039   1.404       .  A
C1038      H1043   1.083       .  S
C1039      C1040   1.403       .  A
C1040      F1041   1.358       .  S
C1045      C1046   1.401       .  A
C1045      C1050   1.399       .  A
C1045      H1052   1.083       .  S
C1046      C1047   1.404       .  A
C1047      C1048   1.399       .  A
C1047      F1054   1.358       .  S
C1048      C1049   1.403       .  A
C1048      H1053   1.083       .  S
C1049      C1050   1.405       .  A
C1050      F1051   1.357       .  S
C1055      C1056   1.405       .  A
C1055      C1060   1.400       .  A
C1056      C1057   1.406       .  A
C1057      C1058   1.402       .  A
C1057      F1064   1.357       .  S
C1058      C1059   1.407       .  A
C1058      H1063   1.083       .  S
C1059      C1060   1.408       .  A
C1060      F1061   1.357       .  S
C1065      C1066   1.402       .  A
C1065      C1070   1.400       .  A
C1065      H1072   1.083       .  S
C1066      C1067   1.406       .  A
C1067      C1068   1.399       .  A
C1067      F1074   1.357       .  S
C1068      C1069   1.402       .  A
C1068      H2237   1.083       .  S
C1069      C1818   1.471   1_455  S
C1069      C1070   1.406       .  A
C1070      F1071   1.357       .  S
H1073      C2232   1.083       .  S
C1075      C1076   1.405       .  A
C1075      C1080   1.397       .  A
C1075      H1082   1.083       .  S
C1076      C1077   1.408       .  A
C1077      C1078   1.402       .  A
C1077      F1084   1.357       .  S
C1078      C1079   1.402       .  A
C1078      H1083   1.083       .  S
C1079      C1080   1.403       .  A
C1080      F1081   1.358       .  S
C1085      C1086   1.405       .  A
C1085      C1090   1.399       .  A
C1085      H1092   1.082       .  S
C1086      C1087   1.408       .  A
C1087      C1088   1.401       .  A
C1087      F1094   1.357       .  S
C1088      C1089   1.402       .  A
C1088      H1093   1.083       .  S
C1089      C1803   1.470   1_455  S
C1089      C1090   1.403       .  A
C1090      F2255   1.357       .  S
F1091      C2254   1.357       .  S
C1095      C1096   1.405       .  A
C1095      C1100   1.398       .  A
C1095      H1102   1.083       .  S
C1096      C1097   1.404       .  A
C1097      C1098   1.399       .  A
C1097      F1104   1.357       .  S
C1098      C1099   1.405       .  A
C1098      H1103   1.083       .  S
C1099      C1100   1.404       .  A
C1100      F1101   1.358       .  S
C1105      C1106   1.408       .  A
C1105      C1110   1.396       .  A
C1105      H1112   1.083       .  S
C1106      C1107   1.414       .  A
C1107      C1108   1.402       .  A
C1107      F1114   1.357       .  S
C1108      C1109   1.400       .  A
C1108      H1113   1.083       .  S
C1109      C1110   1.401       .  A
C1110      F1111   1.358       .  S
C1115      C1116   1.404       .  A
C1115      C1120   1.401       .  A
C1115      H1122   1.083       .  S
C1116      C1117   1.412       .  A
C1117      C1118   1.393       .  A
C1117      F1124   1.358       .  S
C1118      C1119   1.397       .  A
C1118      H1123   1.084       .  S
C1119      C1120   1.407       .  A
C1120      F1121   1.358       .  S
C1125      C1126   1.403       .  A
C1125      C1130   1.401       .  A
C1125      H1132   1.083       .  S
C1126      C1127   1.403       .  A
C1127      C1128   1.392       .  A
C1127      F1134   1.358       .  S
C1128      C1129   1.403       .  A
C1128      H1133   1.082       .  S
C1129      C1130   1.408       .  A
C1130      F1131   1.358       .  S
C1135      C1136   1.407       .  A
C1135      C1140   1.405       .  A
C1135      H1142   1.083       .  S
C1136      C1137   1.415       .  A
C1137      C1138   1.391       .  A
C1137      F1144   1.355       .  S
C1138      C1139   1.397       .  A
C1138      H1143   1.084       .  S
C1139      C1140   1.409       .  A
C1140      F1141   1.357       .  S
C1145      C1146   1.403       .  A
C1145      C1150   1.405       .  A
C1145      H1152   1.083       .  S
C1146      C1147   1.399       .  A
C1147      C1148   1.383       .  A
C1147      F1154   1.354       .  S
C1148      C1149   1.400       .  A
C1148      H1153   1.084       .  S
C1149      C1150   1.410       .  A
C1155      C1156   1.400       .  A
C1155      C1160   1.391       .  A
C1155      H1162   1.083       .  S
C1156      C1157   1.405       .  A
C1157      C1158   1.409       .  A
C1157      F1164   1.357       .  S
C1158      C1159   1.408       .  A
C1158      H1163   1.083       .  S
C1159      C1160   1.401       .  A
C1160      F1161   1.355       .  S
O1165     Ni1171   1.937       .  S
O1165      C1186   1.274       .  A
O1166     Ni1189   1.886       .  S
O1166      C1175   1.264       .  A
O1167     Ni1171   1.919       .  S
O1167     Ni1189   1.891       .  S
O1167     Ni1183   1.906       .  S
O1167      H1190   0.967       .  S
C1168      O1185   1.266       .  A
C1168      O1177   1.275       .  A
C1168      C1688   1.489       .  S
O1169     Ni1188   1.945       .  S
O1169      C1175   1.275       .  A
O1170     Ni1188   1.923       .  S
O1170      C1172   1.279       .  A
Ni1171     O1174   1.930       .  S
Ni1171     O1176   1.923       .  S
C1172      O1182   1.276       .  A
C1172      C1698   1.478       .  S
O1173     Ni1189   1.907       .  S
O1173      C1179   1.267       .  A
O1174      C1179   1.273       .  A
C1175      C1738   1.470       .  S
O1176      C1178   1.276       .  A
O1177     Ni1188   1.945       .  S
C1178      O1184   1.274       .  A
C1178      C1718   1.490       .  S
C1179      C1728   1.461       .  S
H1180      O1181   0.965       .  S
O1181     Ni1189   1.922       .  S
O1181     Ni1183   1.894       .  S
O1181     Ni1188   1.925       .  S
O1182     Ni1183   1.926       .  S
Ni1183     O1187   1.881       .  S
Ni1183     O1185   1.905       .  S
O1184     Ni1189   1.928       .  S
C1186      O1187   1.265       .  A
C1186      C1711   1.471       .  S
C1191      C1678   1.490       .  S
C1191      C1192   1.419       .  A
C1191      C1196   1.411       .  A
C1192      C1658   1.493       .  S
C1192      C1193   1.424       .  A
C1193      C1641   1.499       .  S
C1193      C1194   1.424       .  A
C1194      C1668   1.493       .  S
C1194      C1195   1.418       .  A
C1195      C1648   1.487       .  S
C1195      C1196   1.411       .  A
C1196      C1631   1.487       .  S
O1197     Ni1205   1.919       .  S
O1197      C1207   1.281       .  A
O1198     Ni1205   1.922       .  S
O1198      C1208   1.281       .  A
O1199     Ni1205   1.918       .  S
O1199      C1209   1.282       .  A
O1200     Ni1205   1.914       .  S
O1200      C1210   1.279       .  A
O1201     Ni1206   1.911       .  S
O1201      C1210   1.281       .  A
O1202     Ni1206   1.911       .  S
O1202      C1209   1.278       .  A
O1203     Ni1206   1.916       .  S
O1203      C1208   1.280       .  A
O1204     Ni1206   1.929       .  S
O1204      C1207   1.283       .  A
Ni1205    Ni1206   2.392       .  S
C1207      C2220   1.482   1_545  S
C1208      C1628   1.466       .  S
C1209      C1701   1.466       .  S
C1210      C1621   1.468       .  S
O1211     Ni1219   1.928       .  S
O1211      C1221   1.282       .  A
O1212     Ni1219   1.921       .  S
O1212      C1222   1.282       .  A
O1213     Ni1219   1.924       .  S
O1213      C1223   1.281       .  A
O1214     Ni1219   1.923       .  S
O1214      C1224   1.282       .  A
O1215     Ni1220   1.915       .  S
O1215      C1224   1.279       .  A
O1216     Ni1220   1.917       .  S
O1216      C1223   1.282       .  A
O1217     Ni1220   1.917       .  S
O1217      C1222   1.281       .  A
O1218     Ni1220   1.914       .  S
O1218      C1221   1.279       .  A
Ni1219    Ni1220   2.392       .  S
C1222      C1681   1.473       .  S
C1223      C1611   1.475       .  S
C1224      C1691   1.467       .  S
O1225     Ni1233   1.925       .  S
O1225      C1235   1.282       .  A
O1226     Ni1233   1.926       .  S
O1226      C1236   1.283       .  A
O1227     Ni1233   1.914       .  S
O1227      C1237   1.279       .  A
O1228     Ni1233   1.912       .  S
O1228      C1238   1.282       .  A
O1229     Ni1234   1.912       .  S
O1229      C1238   1.280       .  A
O1230     Ni1234   1.912       .  S
O1230      C1237   1.281       .  A
O1231     Ni1234   1.913       .  S
O1231      C1236   1.279       .  A
O1232     Ni1234   1.916       .  S
O1232      C1235   1.279       .  A
Ni1233    Ni1234   2.390       .  S
C1235      C2243   1.469   1_545  S
C1237      C1708   1.467       .  S
C1238      C1601   1.475       .  S
O1239     Ni1247   1.925       .  S
O1240     Ni1247   1.921       .  S
O1241      C1251   1.279   1_455  A
O1242     Ni1247   1.917       .  S
O1242      C1252   1.283       .  A
O1243     Ni1248   1.917       .  S
O1244     Ni1248   1.919       .  S
O1244      C1251   1.284       .  A
O1245     Ni1248   1.921       .  S
O1245      C1250   1.281   1_655  A
O1246     Ni1248   1.917       .  S
O1246      C1249   1.280       .  A
C1249      C1588   1.477       .  S
C1250      C1581   1.470       .  S
C1251      C1721   1.476       .  S
C1252      C1571   1.479       .  S
O1253     Ni1261   1.914       .  S
O1253      C1845   1.281   1_545  A
O1254     Ni1261   1.910       .  S
O1254      C1846   1.278   1_545  A
O1255     Ni1843   1.900       .  S
O1255      C1265   1.277       .  A
O1256     Ni1261   1.898       .  S
O1256      C1266   1.280       .  A
O1257     Ni1262   1.919       .  S
O1257      C1848   1.280       .  A
O1258     Ni1262   1.922       .  S
O1258      C1265   1.283       .  A
O1259     Ni1262   1.919       .  S
O1259      C1264   1.281       .  A
O1260     Ni1262   1.920       .  S
O1260      C1263   1.282       .  A
Ni1261     O1837   1.900   1_545  S
Ni1261    Ni1844   2.392   1_545  S
Ni1262    Ni1843   2.392       .  S
C1263      O1835   1.281       .  A
C1263      C1548   1.476       .  S
C1264      O1836   1.278       .  A
C1264      C1558   1.461       .  S
C1265      C1541   1.465       .  S
C1266      O1839   1.280   1_545  A
C1266      C1731   1.469       .  S
C1267      C1561   1.484       .  S
C1267      C1854   1.411       .  A
C1268      C1591   1.495       .  S
C1268      C1269   1.419       .  A
C1269      C1531   1.491       .  S
C1269      C1270   1.424       .  A
C1270      C1551   1.493       .  S
C1270      C1853   1.420       .  A
C1271      C1578   1.489       .  S
C1271      C1852   1.420   1_545  A
C1272      C1518   1.485       .  S
C1272      C1849   1.411   1_545  A
O1273     Ni1281   1.916       .  S
O1273      C1283   1.280       .  A
O1274     Ni1281   1.924       .  S
O1274      C1284   1.282       .  A
O1275     Ni1281   1.919       .  S
O1275      C1285   1.282       .  A
O1276     Ni1281   1.921       .  S
O1276      C1286   1.280       .  A
O1277     Ni1282   1.918       .  S
O1277      C1286   1.283       .  A
O1278     Ni1282   1.923       .  S
O1278      C1285   1.281       .  A
O1279     Ni1282   1.909       .  S
O1279      C1284   1.279       .  A
O1280     Ni1282   1.919       .  S
O1280      C1283   1.280       .  A
Ni1281    Ni1282   2.392       .  S
C1283      C1528   1.467       .  S
C1284      C1521   1.466       .  S
C1285      C1741   1.474       .  S
C1286      C1508   1.473       .  S
O1287     Ni1293   1.948   1_556  S
O1287      C1308   1.277       .  A
O1288     Ni1311   1.879       .  S
O1288      C1297   1.265       .  A
O1289     Ni1293   1.924   1_556  S
O1289     Ni1305   1.917       .  S
O1289      H1894   0.966       .  S
C1290      O1307   1.264       .  A
C1290      O1299   1.273       .  A
C1290      C1501   1.460       .  S
O1291     Ni1310   1.940   1_554  S
O1291      C1297   1.275       .  A
O1292     Ni1310   1.925       .  S
O1292      C1294   1.277       .  A
Ni1293     O1296   1.942       .  S
Ni1293     O1298   1.925       .  S
C1294      O1304   1.275       .  A
C1294      C1488   1.484       .  S
O1295      C1301   1.264       .  A
O1296      C1883   1.272       .  A
C1297      C1618   1.473       .  S
O1298      C1300   1.280       .  A
O1299     Ni1892   1.937       .  S
C1300      O1306   1.279       .  A
C1300      C1608   1.486       .  S
C1301      O1878   1.272   1_545  A
C1301      C1598   1.465       .  S
H1302      O1303   0.967       .  S
O1303     Ni1893   1.902       .  S
O1303     Ni1892   1.924   1_554  S
Ni1305     O1309   1.875       .  S
C1308      O1309   1.261       .  A
C1308      C1478   1.487       .  S
Ni1310     O1881   1.937   1_545  S
Ni1310     O1885   1.924   1_546  S
Ni1311     O1885   1.902   1_545  S
H1312      O1871   0.966   1_545  S
O1313     Ni1319   1.949       .  S
O1313      C1334   1.275       .  A
O1314     Ni1337   1.869       .  S
O1314      C1323   1.260       .  A
O1315     Ni1319   1.932       .  S
O1315     Ni1337   1.894       .  S
O1315     Ni1331   1.919       .  S
O1315      H1338   0.967       .  S
C1316      O1333   1.270       .  A
C1316      O1325   1.275       .  A
C1316      C1538   1.471       .  S
O1317     Ni1336   1.947       .  S
O1317      C1323   1.274       .  A
O1318     Ni1336   1.927       .  S
O1318      C1320   1.276       .  A
Ni1319     O1322   1.951       .  S
Ni1319     O1324   1.927       .  S
C1320      O1330   1.271       .  A
C1320      C1568   1.487       .  S
O1321     Ni1337   1.897       .  S
O1321      C1327   1.266       .  A
O1322      C1327   1.276       .  A
C1323      C1468   1.467       .  S
O1324      C1326   1.276       .  A
O1325     Ni1336   1.931       .  S
C1326      O1332   1.272       .  A
C1326      C1448   1.466       .  S
C1327      C1458   1.482       .  S
H1328      O1329   0.967       .  S
O1329     Ni1337   1.899       .  S
O1329     Ni1331   1.891       .  S
O1329     Ni1336   1.928       .  S
O1330     Ni1331   1.914       .  S
Ni1331     O1335   1.879       .  S
Ni1331     O1333   1.900       .  S
O1332     Ni1337   1.922       .  S
C1334      O1335   1.262       .  A
C1334      C1511   1.469       .  S
O1339     Ni1347   1.906       .  S
O1339      C1349   1.278       .  A
O1340     Ni1347   1.897       .  S
O1340      C1350   1.278       .  A
O1341     Ni1347   1.922       .  S
O1341      C1351   1.281       .  A
O1342     Ni1347   1.922       .  S
O1342      C1352   1.284       .  A
O1343     Ni1348   1.914       .  S
O1343      C1352   1.279       .  A
O1344     Ni1348   1.909       .  S
O1344      C1351   1.282       .  A
O1345     Ni1348   1.919       .  S
O1345      C1350   1.282       .  A
O1346     Ni1348   1.920       .  S
O1346      C1349   1.281       .  A
Ni1347    Ni1348   2.390       .  S
C1349      C1428   1.464       .  S
C1350      C1441   1.472       .  S
C1351      C1451   1.476       .  S
C1352      C1481   1.479       .  S
C1353      C1398   1.499       .  S
C1353      C1354   1.449       .  A
C1353      C1358   1.424       .  A
C1354      C1438   1.557       .  S
C1354      C1355   1.453       .  A
C1355      C1421   1.485       .  S
C1355      C1356   1.419       .  A
C1356      C1391   1.500       .  S
C1356      C1357   1.404       .  A
C1357      C1431   1.483       .  S
C1357      C1358   1.405       .  A
C1358      C1411   1.494       .  S
O1359     Ni1367   1.933       .  S
O1359      C1369   1.284       .  A
O1360     Ni1367   1.930       .  S
O1360      C1370   1.283       .  A
O1361     Ni1367   1.925       .  S
O1361      C1371   1.283       .  A
O1362     Ni1367   1.919       .  S
O1362      C1372   1.280       .  A
O1363     Ni1368   1.917       .  S
O1363      C1372   1.282       .  A
O1364     Ni1368   1.914       .  S
O1364      C1371   1.280       .  A
O1365     Ni1368   1.911       .  S
O1365      C1370   1.280       .  A
O1366     Ni1368   1.914       .  S
O1366      C1369   1.280       .  A
Ni1367    Ni1368   2.389       .  S
C1370      C1401   1.479       .  S
C1371      C1461   1.473       .  S
C1372      C1491   1.474       .  S
O1373     Ni1381   1.914       .  S
O1373      C1383   1.279       .  A
O1374     Ni1381   1.912       .  S
O1374      C1384   1.278       .  A
O1375     Ni1381   1.909       .  S
O1375      C1385   1.282       .  A
O1376     Ni1381   1.910       .  S
O1376      C1386   1.279       .  A
O1377     Ni1382   1.909       .  S
O1377      C1386   1.280       .  A
O1378     Ni1382   1.915       .  S
O1378      C1385   1.279       .  A
O1379     Ni1382   1.924       .  S
O1379      C1384   1.282       .  A
O1380     Ni1382   1.927       .  S
O1380      C1383   1.283       .  A
Ni1381    Ni1382   2.392       .  S
C1383      C1990   1.469       .  S
C1385      C1471   1.469       .  S
C1386      C1498   1.466       .  S
C1387      C1388   1.403       .  A
C1387      C1392   1.398       .  A
C1388      C1389   1.405       .  A
C1389      C1390   1.404       .  A
C1389      F1396   1.357       .  S
C1390      C1391   1.407       .  A
C1390      H1395   1.083       .  S
C1391      C1392   1.406       .  A
C1392      F1393   1.356       .  S
C1397      C1398   1.408       .  A
C1397      C1402   1.393       .  A
C1397      H1404   1.082       .  S
C1398      C1399   1.409       .  A
C1399      C1400   1.405       .  A
C1399      F1406   1.357       .  S
C1400      C1401   1.406       .  A
C1400      H1405   1.083       .  S
C1401      C1402   1.406       .  A
C1402      F1403   1.358       .  S
C1407      C1408   1.400       .  A
C1407      C1412   1.399       .  A
C1407      H1414   1.083       .  S
C1408      C1965   1.469   1_545  S
C1408      C1409   1.405       .  A
C1409      C1410   1.401       .  A
C1409      F1416   1.357       .  S
C1410      C1411   1.404       .  A
C1410      H1415   1.083       .  S
C1411      C1412   1.407       .  A
C1412      F1413   1.357       .  S
C1417      C1418   1.400       .  A
C1417      C1422   1.397       .  A
C1417      H1424   1.084       .  S
C1418      C1419   1.404       .  A
C1419      C1420   1.401       .  A
C1419      F1426   1.357       .  S
C1420      C1421   1.406       .  A
C1420      H1425   1.083       .  S
C1421      C1422   1.410       .  A
C1422      F1423   1.356       .  S
C1427      C1428   1.403       .  A
C1427      C2014   1.400       .  A
C1427      H1434   1.083       .  S
C1428      C2011   1.402       .  A
C1429      C2010   1.402       .  A
C1429      C1430   1.393       .  A
C1429      F1436   1.358       .  S
C1430      C1431   1.400       .  A
C1430      H1435   1.082       .  S
C1431      C1432   1.405       .  A
C1432      C2009   1.400       .  A
C1432      F1433   1.357       .  S
C1437      C1438   1.414       .  A
C1437      C1442   1.387       .  A
C1437      H1444   1.061       .  S
C1438      C1439   1.420       .  A
C1439      C1440   1.402       .  A
C1439      F1446   1.351       .  S
C1440      C1441   1.400       .  A
C1440      H1445   1.083       .  S
C1441      C1442   1.397       .  A
C1442      F1443   1.359       .  S
C1447      C1448   1.400       .  A
C1447      C1452   1.387       .  A
C1447      H1454   1.084       .  S
C1448      C1449   1.405       .  A
C1449      C1450   1.409       .  A
C1449      F1456   1.357       .  S
C1450      C1451   1.409       .  A
C1450      H1455   1.083       .  S
C1451      C1452   1.406       .  A
C1452      F1453   1.358       .  S
C1457      C1458   1.408       .  A
C1457      C1462   1.399       .  A
C1457      H1464   1.083       .  S
C1458      C1459   1.408       .  A
C1459      C1460   1.401       .  A
C1459      F1466   1.357       .  S
C1460      C1461   1.404       .  A
C1460      H1465   1.084       .  S
C1461      C1462   1.402       .  A
C1462      F1463   1.358       .  S
C1467      C1468   1.403       .  A
C1467      C1472   1.406       .  A
C1467      H1474   1.083       .  S
C1468      C1469   1.406       .  A
C1469      C1470   1.386       .  A
C1469      F1476   1.359       .  S
C1470      C1471   1.397       .  A
C1470      H1475   1.084       .  S
C1471      C1472   1.410       .  A
C1472      F1473   1.357       .  S
C1477      C1478   1.407       .  A
C1477      C1482   1.404       .  A
C1477      H1484   1.083       .  S
C1478      C1479   1.414       .  A
C1479      C1480   1.393       .  A
C1479      F1486   1.358       .  S
C1480      C1481   1.400       .  A
C1480      H1485   1.084       .  S
C1481      C1482   1.409       .  A
C1482      F1483   1.357       .  S
C1487      C1488   1.409       .  A
C1487      C1492   1.393       .  A
C1488      C1489   1.408       .  A
C1489      C1490   1.405       .  A
C1489      F1496   1.357       .  S
C1490      C1491   1.406       .  A
C1490      H1495   1.083       .  S
C1491      C1492   1.401       .  A
C1492      F1493   1.358       .  S
C1497      C1498   1.405       .  A
C1497      C1502   1.399       .  A
C1497      H1504   1.083       .  S
C1498      C1499   1.404       .  A
C1499      C1500   1.390       .  A
C1499      F1506   1.358       .  S
C1500      C1501   1.401       .  A
C1500      H2087   1.084       .  S
C1501      C1502   1.402       .  A
C1502      F1503   1.357       .  S
H1505      C2082   1.084   1_545  S
C1507      C1508   1.399       .  A
C1507      C1512   1.391       .  A
C1507      H1514   1.084       .  S
C1508      C1509   1.410       .  A
C1509      C1510   1.407       .  A
C1509      F1516   1.357       .  S
C1510      C1511   1.403       .  A
C1510      H1515   1.083       .  S
C1511      C1512   1.404       .  A
C1512      F1513   1.358       .  S
C1517      C1518   1.402       .  A
C1517      C1522   1.397       .  A
C1517      H1524   1.083       .  S
C1518      C1519   1.405       .  A
C1519      C1520   1.399       .  A
C1519      F1526   1.357       .  S
C1520      C1521   1.402       .  A
C1520      H1525   1.083       .  S
C1521      C1522   1.404       .  A
C1522      F1523   1.358       .  S
C1527      C1528   1.401       .  A
C1527      C1532   1.400       .  A
C1527      H1534   1.083       .  S
C1528      C1529   1.401       .  A
C1529      C1530   1.394       .  A
C1529      F1536   1.354       .  S
C1530      C1531   1.404       .  A
C1530      H1535   1.083       .  S
C1531      C1532   1.408       .  A
C1532      F1533   1.357       .  S
C1537      C1538   1.406       .  A
C1537      C1542   1.398       .  A
C1537      H1544   1.084       .  S
C1538      C1539   1.406       .  A
C1539      C1540   1.393       .  A
C1539      F1546   1.358       .  S
C1540      C1541   1.402       .  A
C1540      H1545   1.084       .  S
C1541      C1542   1.403       .  A
C1542      F1543   1.358       .  S
C1547      C1548   1.405       .  A
C1547      C1552   1.401       .  A
C1547      H1554   1.083       .  S
C1548      C2131   1.405       .  A
C1549      C2130   1.405   1_545  A
C1549      C1550   1.394       .  A
C1549      F1556   1.357       .  S
C1550      C2133   1.403   1_545  A
C1550      H1555   1.081       .  S
C1551      C2132   1.403       .  A
C1551      C1552   1.408       .  A
C1552      F1553   1.357       .  S
C1557      C1558   1.401       .  A
C1557      C1562   1.398       .  A
C1557      H1564   1.083       .  S
C1558      C2141   1.402       .  A
C1559      C2140   1.402       .  A
C1559      C1560   1.395       .  A
C1559      F1566   1.358   1_565  S
C1560      C2143   1.402       .  A
C1560      H1565   1.083   1_565  S
C1561      C2142   1.402       .  A
C1561      C1562   1.406       .  A
C1562      F1563   1.357       .  S
C1567      C1568   1.411       .  A
C1567      C1572   1.390       .  A
C1567      H1574   1.083       .  S
C1568      C1569   1.408       .  A
C1569      C1570   1.406       .  A
C1569      F1576   1.357       .  S
C1570      C1571   1.409       .  A
C1570      H1575   1.083       .  S
C1571      C1572   1.402       .  A
C1572      F1573   1.358       .  S
C1577      C1582   1.402       .  A
C1577      H1584   1.083       .  S
C1578      C1579   1.406   1_655  A
C1579      C1580   1.398       .  A
C1579      F1586   1.357       .  S
C1580      C1581   1.401       .  A
C1580      H1585   1.083       .  S
C1582      F1583   1.357       .  S
C1587      C1592   1.397       .  A
C1587      H1594   1.083       .  S
C1588      C1589   1.408       .  A
C1589      C1590   1.401       .  A
C1589      F1596   1.357       .  S
C1590      C1591   1.404       .  A
C1590      H1595   1.083       .  S
C1592      F1593   1.357       .  S
C1597      C1598   1.400       .  A
C1597      C1602   1.401       .  A
C1597      H1604   1.083       .  S
C1598      C1599   1.403       .  A
C1599      C1600   1.391       .  A
C1600      C1601   1.403       .  A
C1601      C1602   1.411       .  A
C1602      F1603   1.357       .  S
C1607      C1608   1.409       .  A
C1607      C1612   1.394       .  A
C1608      C1609   1.410       .  A
C1609      C1610   1.406       .  A
C1609      F1616   1.357       .  S
C1610      C1611   1.405       .  A
C1610      H1615   1.083       .  S
C1611      C1612   1.401       .  A
C1612      F1613   1.358   1_655  S
C1617      C1618   1.403       .  A
C1617      C1622   1.390       .  A
C1617      H1624   1.083       .  S
C1618      C1619   1.408       .  A
C1619      C1620   1.401       .  A
C1619      F1626   1.357       .  S
C1620      C1621   1.404       .  A
C1620      H1625   1.083       .  S
C1621      C1622   1.403       .  A
C1622      F1623   1.358       .  S
C1627      C1628   1.401       .  A
C1627      C1632   1.399       .  A
C1627      H1634   1.083       .  S
C1628      C1629   1.404       .  A
C1629      C1630   1.399       .  A
C1629      F1636   1.358       .  S
C1630      C1631   1.403       .  A
C1630      H1635   1.083       .  S
C1631      C1632   1.405       .  A
C1632      F1633   1.357       .  S
C1637      C1638   1.405       .  A
C1637      C1642   1.400       .  A
C1637      H2226   1.083       .  S
C1638      C1789   1.482       .  S
C1638      C1639   1.406       .  A
C1639      C1640   1.402       .  A
C1639      F1646   1.357       .  S
C1640      C1641   1.407       .  A
C1640      H1645   1.083       .  S
C1641      C1642   1.408       .  A
C1642      F1643   1.357       .  S
H1644      C2219   1.083       .  S
C1647      C1648   1.402       .  A
C1647      C1652   1.400       .  A
C1647      H1654   1.083       .  S
C1648      C1649   1.406       .  A
C1649      C1650   1.399       .  A
C1649      F1656   1.357       .  S
C1650      C1651   1.402       .  A
C1651      C1652   1.406       .  A
C1652      F1653   1.357       .  S
C1657      C1658   1.405       .  A
C1657      C1662   1.397       .  A
C1657      H1664   1.083       .  S
C1658      C1659   1.408       .  A
C1659      C1660   1.402       .  A
C1659      F1666   1.357       .  S
C1660      C1661   1.402       .  A
C1660      H1665   1.083       .  S
C1661      C1817   1.469       .  S
C1661      C1662   1.403       .  A
C1662      F1663   1.358       .  S
C1667      C1668   1.405       .  A
C1667      C1672   1.399       .  A
C1667      H1674   1.082       .  S
C1668      C1669   1.408       .  A
C1669      C1670   1.401       .  A
C1669      F1676   1.357       .  S
C1670      C1671   1.402       .  A
C1670      H1675   1.083       .  S
C1671      C1672   1.403       .  A
C1677      C1678   1.405       .  A
C1677      C1682   1.398       .  A
C1677      H1684   1.083       .  S
C1678      C1679   1.404       .  A
C1679      C1680   1.399       .  A
C1679      F1686   1.357       .  S
C1680      C1681   1.405       .  A
C1680      H1685   1.083       .  S
C1681      C1682   1.404       .  A
C1682      F1683   1.358       .  S
C1687      C1688   1.408       .  A
C1687      C1692   1.396       .  A
C1687      H1694   1.083       .  S
C1688      C1689   1.414       .  A
C1689      C1690   1.402       .  A
C1689      F1696   1.357       .  S
C1690      C1691   1.400       .  A
C1690      H1695   1.083       .  S
C1691      C1692   1.401       .  A
C1692      F1693   1.358       .  S
C1697      C1698   1.404       .  A
C1697      C1702   1.401       .  A
C1697      H1704   1.083       .  S
C1698      C1699   1.412       .  A
C1699      C1700   1.393       .  A
C1699      F1706   1.358       .  S
C1700      C1701   1.397       .  A
C1700      H1705   1.084       .  S
C1701      C1702   1.407       .  A
C1702      F1703   1.358       .  S
C1707      C1708   1.403       .  A
C1707      C1712   1.401       .  A
C1707      H1714   1.083       .  S
C1708      C1709   1.403       .  A
C1709      C1710   1.392       .  A
C1709      F1716   1.358       .  S
C1710      C1711   1.403       .  A
C1710      H1715   1.082       .  S
C1711      C1712   1.408       .  A
C1712      F1713   1.358       .  S
C1717      C1718   1.407       .  A
C1717      C1722   1.405       .  A
C1717      H1724   1.083       .  S
C1718      C1719   1.415       .  A
C1719      C1720   1.391       .  A
C1719      F1726   1.355       .  S
C1720      C1721   1.397       .  A
C1720      H1725   1.084       .  S
C1721      C1722   1.409       .  A
C1722      F1723   1.357   1_655  S
C1727      C1728   1.403       .  A
C1727      C1732   1.405       .  A
C1727      H1734   1.083       .  S
C1728      C1729   1.399       .  A
C1729      C1730   1.383       .  A
C1729      F1736   1.354       .  S
C1730      C1731   1.400       .  A
C1730      H1735   1.084       .  S
C1731      C1732   1.410       .  A
C1732      F2315   1.357   1_545  S
F1733      C2314   1.357       .  S
C1737      C1738   1.400       .  A
C1737      C1742   1.391       .  A
C1737      H1744   1.083       .  S
C1738      C1739   1.405       .  A
C1739      C1740   1.409       .  A
C1739      F1746   1.357       .  S
C1740      C1741   1.408       .  A
C1740      H1745   1.083       .  S
C1741      C1742   1.401       .  A
C1742      F1743   1.355       .  S
O1747     Ni1753   1.937       .  S
O1747      C1768   1.274       .  A
O1748     Ni1771   1.886       .  S
O1748      C1757   1.264       .  A
O1749     Ni1753   1.919       .  S
O1749     Ni1771   1.891       .  S
O1749     Ni1765   1.906       .  S
O1749      H1772   0.967       .  S
C1750      O1767   1.266       .  A
C1750      O1759   1.275       .  A
C1750      C2270   1.489       .  S
O1751     Ni1770   1.945       .  S
O1751      C1757   1.275       .  A
O1752     Ni1770   1.923       .  S
O1752      C1754   1.279       .  A
Ni1753     O1756   1.930       .  S
Ni1753     O1758   1.923       .  S
C1754      O1764   1.276       .  A
C1754      C2280   1.478       .  S
O1755     Ni1771   1.907       .  S
O1755      C1761   1.267       .  A
O1756      C1761   1.273       .  A
C1757      C2320   1.470       .  S
O1758      C1760   1.276       .  A
O1759     Ni1770   1.945       .  S
C1760      O1766   1.274       .  A
C1760      C2300   1.490       .  S
C1761      C2310   1.461       .  S
H1762      O1763   0.965       .  S
O1763     Ni1771   1.922       .  S
O1763     Ni1765   1.894       .  S
O1763     Ni1770   1.925       .  S
O1764     Ni1765   1.926       .  S
Ni1765     O1769   1.881       .  S
Ni1765     O1767   1.905       .  S
O1766     Ni1771   1.928       .  S
C1768      O1769   1.265       .  A
C1768      C2293   1.471       .  S
C1773      C2260   1.490       .  S
C1773      C1774   1.419       .  A
C1773      C1778   1.411       .  A
C1774      C2240   1.493       .  S
C1774      C1775   1.424       .  A
C1775      C2223   1.499       .  S
C1775      C1776   1.424       .  A
C1776      C2250   1.493       .  S
C1776      C1777   1.418       .  A
C1777      C2230   1.487       .  S
C1777      C1778   1.411       .  A
C1778      C2213   1.487       .  S
O1779     Ni1787   1.919       .  S
O1779      C1789   1.281       .  A
O1780     Ni1787   1.922       .  S
O1780      C1790   1.281       .  A
O1781     Ni1787   1.918       .  S
O1781      C1791   1.282       .  A
O1782     Ni1787   1.914       .  S
O1782      C1792   1.279       .  A
O1783     Ni1788   1.911       .  S
O1783      C1792   1.281       .  A
O1784     Ni1788   1.911       .  S
O1784      C1791   1.278       .  A
O1785     Ni1788   1.916       .  S
O1785      C1790   1.280       .  A
O1786     Ni1788   1.929       .  S
O1786      C1789   1.283       .  A
Ni1787    Ni1788   2.392       .  S
C1790      C2210   1.466       .  S
C1791      C2283   1.466       .  S
C1792      C2203   1.468       .  S
O1793     Ni1801   1.928       .  S
O1793      C1803   1.282       .  A
O1794     Ni1801   1.921       .  S
O1794      C1804   1.282       .  A
O1795     Ni1801   1.924       .  S
O1795      C1805   1.281       .  A
O1796     Ni1801   1.923       .  S
O1796      C1806   1.282       .  A
O1797     Ni1802   1.915       .  S
O1797      C1806   1.279       .  A
O1798     Ni1802   1.917       .  S
O1798      C1805   1.282       .  A
O1799     Ni1802   1.917       .  S
O1799      C1804   1.281       .  A
O1800     Ni1802   1.914       .  S
O1800      C1803   1.279       .  A
Ni1801    Ni1802   2.392       .  S
C1804      C2263   1.473       .  S
C1805      C2193   1.475       .  S
C1806      C2273   1.467       .  S
O1807     Ni1815   1.925       .  S
O1807      C1817   1.282       .  A
O1808     Ni1815   1.926       .  S
O1808      C1818   1.283       .  A
O1809     Ni1815   1.914       .  S
O1809      C1819   1.279       .  A
O1810     Ni1815   1.912       .  S
O1810      C1820   1.282       .  A
O1811     Ni1816   1.912       .  S
O1811      C1820   1.280       .  A
O1812     Ni1816   1.912       .  S
O1812      C1819   1.281       .  A
O1813     Ni1816   1.913       .  S
O1813      C1818   1.279       .  A
O1814     Ni1816   1.916       .  S
O1814      C1817   1.279       .  A
Ni1815    Ni1816   2.390       .  S
C1819      C2290   1.467       .  S
C1820      C2183   1.475       .  S
O1821     Ni1829   1.925       .  S
O1822     Ni1829   1.921       .  S
O1823      C1833   1.279   1_455  A
O1824     Ni1829   1.917       .  S
O1824      C1834   1.283       .  A
O1825     Ni1830   1.917       .  S
O1826     Ni1830   1.919       .  S
O1826      C1833   1.284       .  A
O1827     Ni1830   1.921       .  S
O1827      C1832   1.281   1_655  A
O1828     Ni1830   1.917       .  S
O1828      C1831   1.280       .  A
C1831      C2170   1.477       .  S
C1832      C2163   1.470       .  S
C1833      C2303   1.476       .  S
C1834      C2153   1.479       .  S
O1835     Ni1843   1.914       .  S
O1836     Ni1843   1.910       .  S
O1837      C1847   1.277       .  A
O1838     Ni1843   1.898       .  S
O1838      C1848   1.280       .  A
O1839     Ni1844   1.919       .  S
O1840     Ni1844   1.922       .  S
O1840      C1847   1.283       .  A
O1841     Ni1844   1.919       .  S
O1841      C1846   1.281       .  A
O1842     Ni1844   1.920       .  S
O1842      C1845   1.282       .  A
C1845      C2130   1.476       .  S
C1846      C2140   1.461       .  S
C1847      C2123   1.465       .  S
C1848      C2313   1.469       .  S
C1849      C2143   1.484       .  S
C1850      C2173   1.495       .  S
C1850      C1851   1.419       .  A
C1851      C2113   1.491       .  S
C1851      C1852   1.424       .  A
C1852      C2133   1.493       .  S
C1853      C2160   1.489       .  S
C1854      C2100   1.485       .  S
O1855     Ni1863   1.916       .  S
O1855      C1865   1.280       .  A
O1856     Ni1863   1.924       .  S
O1856      C1866   1.282       .  A
O1857     Ni1863   1.919       .  S
O1857      C1867   1.282       .  A
O1858     Ni1863   1.921       .  S
O1858      C1868   1.280       .  A
O1859     Ni1864   1.918       .  S
O1859      C1868   1.283       .  A
O1860     Ni1864   1.923       .  S
O1860      C1867   1.281       .  A
O1861     Ni1864   1.909       .  S
O1861      C1866   1.279       .  A
O1862     Ni1864   1.919       .  S
O1862      C1865   1.280       .  A
Ni1863    Ni1864   2.392       .  S
C1865      C2110   1.467       .  S
C1866      C2103   1.466       .  S
C1867      C2323   1.474       .  S
C1868      C2090   1.473       .  S
O1869     Ni1875   1.948   1_556  S
O1869      C1890   1.277       .  A
O1870     Ni1893   1.879       .  S
O1870      C1879   1.265       .  A
O1871     Ni1875   1.924   1_556  S
O1871     Ni1887   1.917       .  S
C1872      O1889   1.264       .  A
C1872      O1881   1.273       .  A
C1872      C2083   1.460       .  S
O1873     Ni1892   1.940   1_554  S
O1873      C1879   1.275       .  A
O1874     Ni1892   1.925       .  S
O1874      C1876   1.277       .  A
Ni1875     O1878   1.942       .  S
Ni1875     O1880   1.925       .  S
C1876      O1886   1.275       .  A
C1876      C2070   1.484       .  S
O1877      C1883   1.264       .  A
C1879      C2200   1.473       .  S
O1880      C1882   1.280       .  A
C1882      O1888   1.279       .  A
C1882      C2190   1.486       .  S
C1883      C2180   1.465       .  S
H1884      O1885   0.967       .  S
Ni1887     O1891   1.875       .  S
C1890      O1891   1.261       .  A
C1890      C2060   1.487       .  S
O1895     Ni1901   1.949       .  S
O1895      C1916   1.275       .  A
O1896     Ni1919   1.869       .  S
O1896      C1905   1.260       .  A
O1897     Ni1901   1.932       .  S
O1897     Ni1919   1.894       .  S
O1897     Ni1913   1.919       .  S
O1897      H1920   0.967       .  S
C1898      O1915   1.270       .  A
C1898      O1907   1.275       .  A
C1898      C2120   1.471       .  S
O1899     Ni1918   1.947       .  S
O1899      C1905   1.274       .  A
O1900     Ni1918   1.927       .  S
O1900      C1902   1.276       .  A
Ni1901     O1904   1.951       .  S
Ni1901     O1906   1.927       .  S
C1902      O1912   1.271       .  A
C1902      C2150   1.487       .  S
O1903     Ni1919   1.897       .  S
O1903      C1909   1.266       .  A
O1904      C1909   1.276       .  A
C1905      C2050   1.467       .  S
O1906      C1908   1.276       .  A
O1907     Ni1918   1.931       .  S
C1908      O1914   1.272       .  A
C1908      C2030   1.466       .  S
C1909      C2040   1.482       .  S
H1910      O1911   0.967       .  S
O1911     Ni1919   1.899       .  S
O1911     Ni1913   1.891       .  S
O1911     Ni1918   1.928       .  S
O1912     Ni1913   1.914       .  S
Ni1913     O1917   1.879       .  S
Ni1913     O1915   1.900       .  S
O1914     Ni1919   1.922       .  S
C1916      O1917   1.262       .  A
C1916      C2093   1.469       .  S
O1921     Ni1929   1.906       .  S
O1921      C1931   1.278       .  A
O1922     Ni1929   1.897       .  S
O1922      C1932   1.278       .  A
O1923     Ni1929   1.922       .  S
O1923      C1933   1.281       .  A
O1924     Ni1929   1.922       .  S
O1924      C1934   1.284       .  A
O1925     Ni1930   1.914       .  S
O1925      C1934   1.279       .  A
O1926     Ni1930   1.909       .  S
O1926      C1933   1.282       .  A
O1927     Ni1930   1.919       .  S
O1927      C1932   1.282       .  A
O1928     Ni1930   1.920       .  S
O1928      C1931   1.281       .  A
Ni1929    Ni1930   2.390       .  S
C1931      C2010   1.464   1_565  S
C1932      C2023   1.472       .  S
C1933      C2033   1.476       .  S
C1934      C2063   1.479       .  S
C1935      C1980   1.499       .  S
C1935      C1936   1.449       .  A
C1935      C1940   1.424       .  A
C1936      C2020   1.557       .  S
C1936      C1937   1.453       .  A
C1937      C2003   1.485       .  S
C1937      C1938   1.419       .  A
C1938      C1973   1.500       .  S
C1938      C1939   1.404       .  A
C1939      C2013   1.483       .  S
C1939      C1940   1.405       .  A
C1940      C1993   1.494       .  S
O1941     Ni1949   1.933       .  S
O1941      C1951   1.284       .  A
O1942     Ni1949   1.930       .  S
O1942      C1952   1.283       .  A
O1943     Ni1949   1.925       .  S
O1943      C1953   1.283       .  A
O1944     Ni1949   1.919       .  S
O1944      C1954   1.280       .  A
O1945     Ni1950   1.917       .  S
O1945      C1954   1.282       .  A
O1946     Ni1950   1.914       .  S
O1946      C1953   1.280       .  A
O1947     Ni1950   1.911       .  S
O1947      C1952   1.280       .  A
O1948     Ni1950   1.914       .  S
O1948      C1951   1.280       .  A
Ni1949    Ni1950   2.389       .  S
C1952      C1983   1.479       .  S
C1953      C2043   1.473       .  S
C1954      C2073   1.474       .  S
O1955     Ni1963   1.914       .  S
O1955      C1965   1.279       .  A
O1956     Ni1963   1.912       .  S
O1956      C1966   1.278       .  A
O1957     Ni1963   1.909       .  S
O1957      C1967   1.282       .  A
O1958     Ni1963   1.910       .  S
O1958      C1968   1.279       .  A
O1959     Ni1964   1.909       .  S
O1959      C1968   1.280       .  A
O1960     Ni1964   1.915       .  S
O1960      C1967   1.279       .  A
O1961     Ni1964   1.924       .  S
O1961      C1966   1.282       .  A
O1962     Ni1964   1.927       .  S
O1962      C1965   1.283       .  A
Ni1963    Ni1964   2.392       .  S
C1967      C2053   1.469       .  S
C1968      C2080   1.466       .  S
C1969      C1970   1.403       .  A
C1969      C1974   1.398       .  A
C1970      C1971   1.405       .  A
C1971      C1972   1.404       .  A
C1971      F1978   1.357       .  S
C1972      C1973   1.407       .  A
C1972      H1977   1.083       .  S
C1973      C1974   1.406       .  A
C1974      F1975   1.356       .  S
C1979      C1980   1.408       .  A
C1979      C1984   1.393       .  A
C1979      H1986   1.082       .  S
C1980      C1981   1.409       .  A
C1981      C1982   1.405       .  A
C1981      F1988   1.357       .  S
C1982      C1983   1.406       .  A
C1982      H1987   1.083       .  S
C1983      C1984   1.406       .  A
C1984      F1985   1.358       .  S
C1989      C1990   1.400       .  A
C1989      C1994   1.399       .  A
C1989      H1996   1.083       .  S
C1990      C1991   1.405       .  A
C1991      C1992   1.401       .  A
C1991      F1998   1.357       .  S
C1992      C1993   1.404       .  A
C1992      H1997   1.083       .  S
C1993      C1994   1.407       .  A
C1994      F1995   1.357       .  S
C1999      C2000   1.400       .  A
C1999      C2004   1.397       .  A
C1999      H2006   1.084       .  S
C2000      C2001   1.404       .  A
C2001      C2002   1.401       .  A
C2001      F2008   1.357       .  S
C2002      C2003   1.406       .  A
C2002      H2007   1.083       .  S
C2003      C2004   1.410       .  A
C2004      F2005   1.356       .  S
C2009      C2010   1.403       .  A
C2009      H2016   1.083       .  S
C2011      C2012   1.393       .  A
C2011      F2018   1.358       .  S
C2012      C2013   1.400       .  A
C2012      H2017   1.082       .  S
C2013      C2014   1.405       .  A
C2014      F2015   1.357       .  S
C2019      C2020   1.414       .  A
C2019      C2024   1.387       .  A
C2019      H2026   1.061       .  S
C2020      C2021   1.420       .  A
C2021      C2022   1.402       .  A
C2021      F2028   1.351       .  S
C2022      C2023   1.400       .  A
C2022      H2027   1.083       .  S
C2023      C2024   1.397       .  A
C2024      F2025   1.359       .  S
C2029      C2030   1.400       .  A
C2029      C2034   1.387       .  A
C2029      H2036   1.084       .  S
C2030      C2031   1.405       .  A
C2031      C2032   1.409       .  A
C2031      F2038   1.357       .  S
C2032      C2033   1.409       .  A
C2032      H2037   1.083       .  S
C2033      C2034   1.406       .  A
C2034      F2035   1.358       .  S
C2039      C2040   1.408       .  A
C2039      C2044   1.399       .  A
C2039      H2046   1.083       .  S
C2040      C2041   1.408       .  A
C2041      C2042   1.401       .  A
C2041      F2048   1.357       .  S
C2042      C2043   1.404       .  A
C2042      H2047   1.084       .  S
C2043      C2044   1.402       .  A
C2044      F2045   1.358       .  S
C2049      C2050   1.403       .  A
C2049      C2054   1.406       .  A
C2049      H2056   1.083       .  S
C2050      C2051   1.406       .  A
C2051      C2052   1.386       .  A
C2051      F2058   1.359       .  S
C2052      C2053   1.397       .  A
C2052      H2057   1.084       .  S
C2053      C2054   1.410       .  A
C2054      F2055   1.357       .  S
C2059      C2060   1.407       .  A
C2059      C2064   1.404       .  A
C2059      H2066   1.083       .  S
C2060      C2061   1.414       .  A
C2061      C2062   1.393       .  A
C2061      F2068   1.358       .  S
C2062      C2063   1.400       .  A
C2062      H2067   1.084       .  S
C2063      C2064   1.409       .  A
C2064      F2065   1.357       .  S
C2069      C2070   1.409       .  A
C2069      C2074   1.393       .  A
C2070      C2071   1.408       .  A
C2071      C2072   1.405       .  A
C2071      F2078   1.357       .  S
C2072      C2073   1.406       .  A
C2072      H2077   1.083       .  S
C2073      C2074   1.401       .  A
C2074      F2075   1.358       .  S
C2079      C2080   1.405       .  A
C2079      C2084   1.399       .  A
C2079      H2086   1.083       .  S
C2080      C2081   1.404       .  A
C2081      C2082   1.390       .  A
C2081      F2088   1.358       .  S
C2082      C2083   1.401       .  A
C2083      C2084   1.402       .  A
C2084      F2085   1.357       .  S
C2089      C2090   1.399       .  A
C2089      C2094   1.391       .  A
C2089      H2096   1.084       .  S
C2090      C2091   1.410       .  A
C2091      C2092   1.407       .  A
C2091      F2098   1.357       .  S
C2092      C2093   1.403       .  A
C2092      H2097   1.083       .  S
C2093      C2094   1.404       .  A
C2094      F2095   1.358       .  S
C2099      C2100   1.402       .  A
C2099      C2104   1.397       .  A
C2099      H2106   1.083       .  S
C2100      C2101   1.405       .  A
C2101      C2102   1.399       .  A
C2101      F2108   1.357       .  S
C2102      C2103   1.402       .  A
C2102      H2107   1.083       .  S
C2103      C2104   1.404       .  A
C2104      F2105   1.358       .  S
C2109      C2110   1.401       .  A
C2109      C2114   1.400       .  A
C2109      H2116   1.083       .  S
C2110      C2111   1.401       .  A
C2111      C2112   1.394       .  A
C2111      F2118   1.354       .  S
C2112      C2113   1.404       .  A
C2112      H2117   1.083       .  S
C2113      C2114   1.408       .  A
C2114      F2115   1.357       .  S
C2119      C2120   1.406       .  A
C2119      C2124   1.398       .  A
C2119      H2126   1.084       .  S
C2120      C2121   1.406       .  A
C2121      C2122   1.393       .  A
C2121      F2128   1.358       .  S
C2122      C2123   1.402       .  A
C2122      H2127   1.084       .  S
C2123      C2124   1.403       .  A
C2124      F2125   1.358       .  S
C2129      C2130   1.405       .  A
C2129      C2134   1.401       .  A
C2129      H2136   1.083       .  S
C2131      C2132   1.394       .  A
C2131      F2138   1.357       .  S
C2132      H2137   1.081       .  S
C2133      C2134   1.408       .  A
C2134      F2135   1.357       .  S
C2139      C2140   1.401       .  A
C2139      C2144   1.398       .  A
C2139      H2146   1.083       .  S
C2141      C2142   1.395       .  A
C2141      F2148   1.358       .  S
C2142      H2147   1.083       .  S
C2143      C2144   1.406       .  A
C2144      F2145   1.357       .  S
C2149      C2150   1.411       .  A
C2149      C2154   1.390       .  A
C2149      H2156   1.083       .  S
C2150      C2151   1.408       .  A
C2151      C2152   1.406       .  A
C2151      F2158   1.357       .  S
C2152      C2153   1.409       .  A
C2152      H2157   1.083       .  S
C2153      C2154   1.402       .  A
C2154      F2155   1.358       .  S
C2159      C2164   1.402       .  A
C2159      H2166   1.083       .  S
C2160      C2161   1.406   1_655  A
C2161      C2162   1.398       .  A
C2161      F2168   1.357       .  S
C2162      C2163   1.401       .  A
C2162      H2167   1.083       .  S
C2164      F2165   1.357       .  S
C2169      C2174   1.397       .  A
C2169      H2176   1.083       .  S
C2170      C2171   1.408       .  A
C2171      C2172   1.401       .  A
C2171      F2178   1.357       .  S
C2172      C2173   1.404       .  A
C2172      H2177   1.083       .  S
C2174      F2175   1.357       .  S
C2179      C2180   1.400       .  A
C2179      C2184   1.401       .  A
C2179      H2186   1.083       .  S
C2180      C2181   1.403       .  A
C2181      C2182   1.391       .  A
C2182      C2183   1.403       .  A
C2183      C2184   1.411       .  A
C2184      F2185   1.357       .  S
C2189      C2190   1.409       .  A
C2189      C2194   1.394       .  A
C2190      C2191   1.410       .  A
C2191      C2192   1.406       .  A
C2191      F2198   1.357       .  S
C2192      C2193   1.405       .  A
C2192      H2197   1.083       .  S
C2193      C2194   1.401       .  A
C2194      F2195   1.358   1_655  S
C2199      C2200   1.403       .  A
C2199      C2204   1.390       .  A
C2199      H2206   1.083       .  S
C2200      C2201   1.408       .  A
C2201      C2202   1.401       .  A
C2201      F2208   1.357       .  S
C2202      C2203   1.404       .  A
C2202      H2207   1.083       .  S
C2203      C2204   1.403       .  A
C2204      F2205   1.358       .  S
C2209      C2210   1.401       .  A
C2209      C2214   1.399       .  A
C2209      H2216   1.083       .  S
C2210      C2211   1.404       .  A
C2211      C2212   1.399       .  A
C2211      F2218   1.358       .  S
C2212      C2213   1.403       .  A
C2212      H2217   1.083       .  S
C2213      C2214   1.405       .  A
C2214      F2215   1.357       .  S
C2219      C2220   1.405       .  A
C2219      C2224   1.400       .  A
C2220      C2221   1.406       .  A
C2221      C2222   1.402       .  A
C2221      F2228   1.357       .  S
C2222      C2223   1.407       .  A
C2222      H2227   1.083       .  S
C2223      C2224   1.408       .  A
C2224      F2225   1.357       .  S
C2229      C2230   1.402       .  A
C2229      C2234   1.400       .  A
C2229      H2236   1.083       .  S
C2230      C2231   1.406       .  A
C2231      C2232   1.399       .  A
C2231      F2238   1.357       .  S
C2232      C2233   1.402       .  A
C2233      C2234   1.406       .  A
C2234      F2235   1.357       .  S
C2239      C2240   1.405       .  A
C2239      C2244   1.397       .  A
C2239      H2246   1.083       .  S
C2240      C2241   1.408       .  A
C2241      C2242   1.402       .  A
C2241      F2248   1.357       .  S
C2242      C2243   1.402       .  A
C2242      H2247   1.083       .  S
C2243      C2244   1.403       .  A
C2244      F2245   1.358       .  S
C2249      C2250   1.405       .  A
C2249      C2254   1.399       .  A
C2249      H2256   1.082       .  S
C2250      C2251   1.408       .  A
C2251      C2252   1.401       .  A
C2251      F2258   1.357       .  S
C2252      C2253   1.402       .  A
C2252      H2257   1.083       .  S
C2253      C2254   1.403       .  A
C2259      C2260   1.405       .  A
C2259      C2264   1.398       .  A
C2259      H2266   1.083       .  S
C2260      C2261   1.404       .  A
C2261      C2262   1.399       .  A
C2261      F2268   1.357       .  S
C2262      C2263   1.405       .  A
C2262      H2267   1.083       .  S
C2263      C2264   1.404       .  A
C2264      F2265   1.358       .  S
C2269      C2270   1.408       .  A
C2269      C2274   1.396       .  A
C2269      H2276   1.083       .  S
C2270      C2271   1.414       .  A
C2271      C2272   1.402       .  A
C2271      F2278   1.357       .  S
C2272      C2273   1.400       .  A
C2272      H2277   1.083       .  S
C2273      C2274   1.401       .  A
C2274      F2275   1.358       .  S
C2279      C2280   1.404       .  A
C2279      C2284   1.401       .  A
C2279      H2286   1.083       .  S
C2280      C2281   1.412       .  A
C2281      C2282   1.393       .  A
C2281      F2288   1.358       .  S
C2282      C2283   1.397       .  A
C2282      H2287   1.084       .  S
C2283      C2284   1.407       .  A
C2284      F2285   1.358       .  S
C2289      C2290   1.403       .  A
C2289      C2294   1.401       .  A
C2289      H2296   1.083       .  S
C2290      C2291   1.403       .  A
C2291      C2292   1.392       .  A
C2291      F2298   1.358       .  S
C2292      C2293   1.403       .  A
C2292      H2297   1.082       .  S
C2293      C2294   1.408       .  A
C2294      F2295   1.358       .  S
C2299      C2300   1.407       .  A
C2299      C2304   1.405       .  A
C2299      H2306   1.083       .  S
C2300      C2301   1.415       .  A
C2301      C2302   1.391       .  A
C2301      F2308   1.355       .  S
C2302      C2303   1.397       .  A
C2302      H2307   1.084       .  S
C2303      C2304   1.409       .  A
C2304      F2305   1.357   1_655  S
C2309      C2310   1.403       .  A
C2309      C2314   1.405       .  A
C2309      H2316   1.083       .  S
C2310      C2311   1.399       .  A
C2311      C2312   1.383       .  A
C2311      F2318   1.354       .  S
C2312      C2313   1.400       .  A
C2312      H2317   1.084       .  S
C2313      C2314   1.410       .  A
C2319      C2320   1.400       .  A
C2319      C2324   1.391       .  A
C2319      H2326   1.083       .  S
C2320      C2321   1.405       .  A
C2321      C2322   1.409       .  A
C2321      F2328   1.357       .  S
C2322      C2323   1.408       .  A
C2322      H2327   1.083       .  S
C2323      C2324   1.401       .  A
C2324      F2325   1.355       .  S
