geometry optimzed in LAMMPS
_audit_creation_date              2020-11-30 
_audit_creation_method            'lammps2cif' 
_symmetry_space_group_name_H-M    'P1' 
_symmetry_Int_Tables_number       1 
_symmetry_cell_setting            triclinic 
loop_ 
_symmetry_equiv_pos_as_xyz 
  x,y,z 
_cell_length_a                    46.03419969 
_cell_length_b                    46.06664187517224 
_cell_length_c                    33.033656326800994 
_cell_angle_alpha                 90.05993733748801 
_cell_angle_beta                  89.93821717127284 
_cell_angle_gamma                 119.59420250848875 
loop_ 
_atom_site_label 
_atom_site_type_symbol 
_atom_site_fract_x 
_atom_site_fract_y 
_atom_site_fract_z 
_atom_site_charge 
C1          C  0.33270583  0.66777981  0.20881367     0.45900
H2          H  0.33342049  0.66795970  0.17520889    -0.03100
C3          C  0.33100503  0.66755533  0.28757637     0.45900
H4          H  0.33038982  0.66779372  0.32116986    -0.03100
C5          C  0.35026180  0.64984690  0.22822384    -0.16800
C6          C  0.34992504  0.70331397  0.22764370    -0.16600
C7          C  0.29674312  0.64971952  0.22616726    -0.17000
C8          C  0.34980538  0.65018307  0.27013681    -0.16900
C9          C  0.34894123  0.70300821  0.26929629    -0.16500
C10         C  0.29581989  0.64962404  0.26789440    -0.16800
C11         C  0.15881159  0.37036210  0.76572494     0.02700
C12         C  0.16184454  0.37144307  0.72304926     0.02700
C13         C  0.18814236  0.36882973  0.70531048    -0.17800
C14         C  0.21397330  0.37022194  0.72905771     0.02700
C15         C  0.21069702  0.36839249  0.77178512     0.02700
C16         C  0.18188618  0.36631160  0.78923587    -0.17800
H17         H  0.17972216  0.36604308  0.82194453     0.04700
H18         H  0.19092402  0.37041475  0.67264618     0.04700
C19         C  0.16734952  0.77752234  0.76802140     0.02700
C20         C  0.16660108  0.78328390  0.72610861     0.02700
C21         C  0.19165374  0.81313243  0.70930408    -0.17800
C22         C  0.21934941  0.83516639  0.73232638     0.02700
C23         C  0.22035003  0.82895448  0.77395791     0.02700
C24         C  0.19356678  0.80104669  0.79174566    -0.17800
H25         H  0.19465849  0.79604658  0.82363571     0.04700
H26         H  0.19167874  0.81718683  0.67695951     0.04700
C27         C  0.78557669  0.62546097  0.26977916     0.02700
C28         C  0.78541414  0.62421699  0.22718806     0.02700
C29         C  0.81301012  0.62627955  0.20666804    -0.17800
C30         C  0.83915408  0.62584178  0.22787535     0.02700
C31         C  0.83918858  0.62682498  0.27081948     0.02700
C32         C  0.81324569  0.62866917  0.29100650    -0.17800
H33         H  0.81252183  0.62829536  0.32383710     0.04700
H34         H  0.81200851  0.62388166  0.17396786     0.04700
O35         O  0.05341197  0.48679228  0.94737358    -0.78100
C36         C  0.03704341  0.57113445  0.93274642     0.83000
O37         O  0.05068756  0.52327570  0.08232112    -0.79200
O38         O  0.95963377  0.53775247  0.02458170    -0.80700
O39         O  0.93229387  0.44024693  0.94118954    -0.80500
O40         O  0.00524621  0.43907796  0.94395314    -0.79100
Zn41       Zn  0.04536262  0.51884374  0.98015472     1.55700
O42         O  0.93170454  0.48815140  0.94340576    -0.80500
Cd43       Cd  0.97383872  0.45002151  0.97742859     1.59700
Cd44       Cd  0.00146677  0.49889651  0.05932817     1.59600
O45         O  0.95738771  0.41832497  0.02650606    -0.80500
O46         O  0.99926325  0.49693536  0.99850071    -1.91000
Cd47       Cd  0.97452910  0.51930769  0.97717377     1.59900
O48         O  0.97679084  0.45052082  0.08152129    -0.80400
O49         O  0.00631651  0.55930891  0.94174794    -0.79100
C50         C  0.07888957  0.53677751  0.06416925     0.83500
C51         C  0.03621097  0.45665983  0.93544550     0.83100
O52         O  0.05380800  0.55771092  0.94529310    -0.78000
C53         C  0.91895678  0.45790696  0.93161032     0.83900
O54         O  0.08005140  0.53665492  0.02559074    -0.78100
C55         C  0.96061188  0.42184737  0.06486099     0.84000
C56         C  0.96251743  0.53788570  0.06294209     0.84400
O57         O  0.97738447  0.52411878  0.08036277    -0.80600
O58         O  0.05394909  0.56110861  0.55581238    -0.78100
C59         C  0.03716461  0.46044440  0.56294240     0.83000
O60         O  0.05063045  0.52761198  0.41624235    -0.79200
O61         O  0.96109765  0.42301181  0.46954627    -0.80700
O62         O  0.93075942  0.48843460  0.55363083    -0.80500
O63         O  0.00484492  0.55956559  0.56092818    -0.79100
Zn64       Zn  0.04666481  0.52314786  0.51896148     1.55700
O65         O  0.93222132  0.44100135  0.55388732    -0.80500
Cd66       Cd  0.97445710  0.52155203  0.52258758     1.59700
Cd67       Cd  0.00205001  0.50364368  0.43972692     1.59600
O68         O  0.96117327  0.54272545  0.47645773    -0.80500
O69         O  0.00036013  0.50076758  0.50039361    -1.91000
Cd70       Cd  0.97534577  0.45340893  0.51945090     1.59900
O71         O  0.97910659  0.52994472  0.42019036    -0.80400
O72         O  0.00652206  0.44285732  0.55318293    -0.79100
C73         C  0.07914937  0.54133629  0.43344270     0.83500
C74         C  0.03566284  0.57240896  0.56993078     0.83100
O75         O  0.05476726  0.49084018  0.55193606    -0.78000
C76         C  0.91798839  0.45779173  0.56367566     0.83900
O77         O  0.08118133  0.54162338  0.47210491    -0.78100
C78         C  0.96461087  0.54384805  0.43812372     0.84000
C79         C  0.96306486  0.42719887  0.43129279     0.84400
O80         O  0.97731255  0.45618032  0.41537124    -0.80600
C81         C  0.83830248  0.21482569  0.27323013     0.02700
C82         C  0.83503701  0.21325313  0.23075517     0.02700
C83         C  0.80945110  0.18462137  0.21274902    -0.17800
C84         C  0.78501627  0.15910783  0.23645904     0.02700
C85         C  0.78856959  0.16012028  0.27912976     0.02700
C86         C  0.81640597  0.18742298  0.29675133    -0.17800
H87         H  0.81881377  0.18914342  0.32944028     0.04700
H88         H  0.80627990  0.18403567  0.18016208     0.04700
C89         C  0.38025096  0.16465944  0.26839369     0.02700
C90         C  0.37822626  0.16227407  0.22580864     0.02700
C91         C  0.37492464  0.18622613  0.20342572    -0.17800
C92         C  0.37676099  0.21435604  0.22232237     0.02700
C93         C  0.37846026  0.21667737  0.26511639     0.02700
C94         C  0.37889113  0.19109028  0.28769646    -0.17800
H95         H  0.38190110  0.19364145  0.32029004     0.04700
H96         H  0.37507254  0.18509055  0.17062464     0.04700
C97         C  0.62798729  0.84086589  0.73235985     0.02700
C98         C  0.63078323  0.83792110  0.77459188     0.02700
C99         C  0.63400972  0.81114937  0.78934519    -0.17800
C100        C  0.63055366  0.78553877  0.76340425     0.02700
C101        C  0.62930882  0.78929238  0.72102893     0.02700
C102        C  0.62977027  0.81794844  0.70606218    -0.17800
H103        H  0.62717047  0.82022461  0.67375942     0.04700
H104        H  0.63473616  0.80795788  0.82178446     0.04700
O105        O  0.50484957  0.94317879  0.55730552    -0.78100
C106        C  0.42221314  0.96189352  0.55983429     0.83000
O107        O  0.47527234  0.94647512  0.41636128    -0.79200
O108        O  0.46122100  0.03825185  0.46821028    -0.80700
O109        O  0.55691939  0.06464863  0.55464805    -0.80500
O110        O  0.55347231  0.99047879  0.55940692    -0.79100
Zn111      Zn  0.47587562  0.95151653  0.51851206     1.55700
O112        O  0.50939482  0.06589235  0.55263809    -0.80500
Cd113      Cd  0.54596490  0.02163936  0.52161740     1.59700
Cd114      Cd  0.50059362  0.99562343  0.43835756     1.59600
O115        O  0.57945819  0.03493198  0.47479260    -0.80500
O116        O  0.49971347  0.99748311  0.49915544    -1.91000
Cd117      Cd  0.47790486  0.02350277  0.51796352     1.59900
O118        O  0.54963366  0.01790567  0.41789731    -0.80400
O119        O  0.43640586  0.99302361  0.55216903    -0.79100
C120        C  0.46158573  0.91831831  0.43448629     0.83500
C121        C  0.53466652  0.96037057  0.57047740     0.83100
O122        O  0.43436221  0.94373097  0.54802144    -0.78000
C123        C  0.53971619  0.07846262  0.56425327     0.83900
O124        O  0.46109955  0.91691316  0.47308295    -0.78100
C125        C  0.57762082  0.03186514  0.43640767     0.84000
C126        C  0.46351439  0.03589554  0.42999015     0.84400
O127        O  0.47805452  0.02113347  0.41424471    -0.80600
O128        O  0.43763406  0.49130695  0.55447424    -0.78100
C129        C  0.53827418  0.57544685  0.56340060     0.83000
O130        O  0.47309015  0.52756743  0.41699179    -0.79200
O131        O  0.57763274  0.53838242  0.46994400    -0.80700
O132        O  0.51014902  0.44179747  0.55252789    -0.80500
O133        O  0.43809878  0.44319344  0.55490383    -0.79100
Zn134      Zn  0.47585738  0.52309509  0.51907832     1.55700
O135        O  0.55799132  0.48969961  0.55178305    -0.80500
Cd136      Cd  0.47823833  0.45301462  0.51865648     1.59700
Cd137      Cd  0.49738724  0.50188307  0.43782070     1.59600
O138        O  0.46079395  0.42122240  0.46971437    -0.80500
O139        O  0.49900002  0.50015135  0.49863342    -1.91000
Cd140      Cd  0.54608641  0.52138827  0.51863775     1.59900
O141        O  0.47266207  0.45352089  0.41503866    -0.80400
O142        O  0.55621934  0.56265299  0.55313602    -0.79100
C143        C  0.45882702  0.54149039  0.43556530     0.83500
C144        C  0.42548330  0.46106541  0.56601925     0.83100
O145        O  0.50772957  0.56255206  0.55287583    -0.78000
C146        C  0.54085989  0.45916697  0.56252341     0.83900
O147        O  0.45767583  0.54115150  0.47424769    -0.78100
C148        C  0.46018352  0.42473584  0.43149962     0.84000
C149        C  0.57443477  0.53874079  0.43171656     0.84400
O150        O  0.54576768  0.52589669  0.41485851    -0.80600
O151        O  0.44360992  0.94400879  0.94884502    -0.78100
C152        C  0.54666225  0.96527605  0.93587331     0.83000
O153        O  0.47884291  0.94911956  0.08382803    -0.79200
O154        O  0.58366684  0.04193938  0.02841709    -0.80700
O155        O  0.51221118  0.06634742  0.94424378    -0.80500
O156        O  0.44193119  0.99143073  0.94290740    -0.79100
Zn157      Zn  0.48399208  0.95382551  0.98147180     1.55700
O158        O  0.56140195  0.06847015  0.94517003    -0.80500
Cd159      Cd  0.48178173  0.02367734  0.97808453     1.59700
Cd160      Cd  0.50302395  0.99797612  0.06052687     1.59600
O161        O  0.46328527  0.03863546  0.02539368    -0.80500
O162        O  0.50495223  0.99989058  0.99981916    -1.91000
Cd163      Cd  0.55192635  0.02634438  0.97965936     1.59900
O164        O  0.47790395  0.02196079  0.08129682    -0.80400
O165        O  0.56361548  0.99595148  0.94574827    -0.79100
C166        C  0.46658049  0.92089120  0.06600488     0.83500
C167        C  0.43000165  0.96043411  0.93575447     0.83100
O168        O  0.51630111  0.94700986  0.94675741    -0.78000
C169        C  0.54298598  0.08063806  0.93430293     0.83900
O170        O  0.46758222  0.91949287  0.02746623    -0.78100
C171        C  0.46372612  0.03634682  0.06379820     0.84000
C172        C  0.57998260  0.03833540  0.06663578     0.84400
O173        O  0.55118703  0.02236504  0.08306698    -0.80600
O174        O  0.50838100  0.56467301  0.94126085    -0.78100
C175        C  0.42513862  0.46353999  0.92900750     0.83000
O176        O  0.47208011  0.52729159  0.07847905    -0.79200
O177        O  0.45908156  0.42259122  0.02375666    -0.80700
O178        O  0.55852441  0.49136461  0.94448951    -0.80500
O179        O  0.55596965  0.56307107  0.93903323    -0.79100
Zn180      Zn  0.47638614  0.52535751  0.97567017     1.55700
O181        O  0.51057637  0.44354584  0.94426786    -0.80500
Cd182      Cd  0.54669306  0.52364350  0.97642763     1.59700
Cd183      Cd  0.49788735  0.50323629  0.05721705     1.59600
O184        O  0.57859809  0.54220172  0.02525989    -0.80500
O185        O  0.49943487  0.50226839  0.99627549    -1.91000
Cd186      Cd  0.47809834  0.45522341  0.97591013     1.59900
O187        O  0.54636251  0.52854402  0.08031586    -0.80400
O188        O  0.43826187  0.44596090  0.93941467    -0.79100
C189        C  0.45801288  0.54140218  0.05992829     0.83500
C190        C  0.53838179  0.57624935  0.92887186     0.83100
O191        O  0.43718904  0.49379842  0.94049952    -0.78000
C192        C  0.54141582  0.46060528  0.93467004     0.83900
O193        O  0.45815979  0.54247075  0.02126080    -0.78100
C194        C  0.57514209  0.54217741  0.06359184     0.84000
C195        C  0.45965976  0.42574247  0.06212141     0.84400
O196        O  0.47374350  0.45438854  0.07918471    -0.80600
C197        C  0.66547719  0.33107900  0.70982717     0.45900
H198        H  0.66535761  0.33108795  0.67620484    -0.03100
C199        C  0.66654170  0.33190788  0.78867299     0.45900
H200        H  0.66697691  0.33209928  0.82228289    -0.03100
C201        C  0.64787467  0.34925799  0.72884540    -0.16800
C202        C  0.64838502  0.29561285  0.72868503    -0.16600
C203        C  0.70118160  0.34889924  0.72773427    -0.17000
C204        C  0.64854625  0.34976868  0.77065015    -0.16900
C205        C  0.64806551  0.29621518  0.77055698    -0.16500
C206        C  0.70176159  0.34929478  0.76933535    -0.16800
C207        C  0.60183726  0.44608691  0.86848954    -0.27200
C208        C  0.58701310  0.41111027  0.86885143     0.02400
C209        C  0.55753027  0.39262406  0.89159231     0.30500
C210        C  0.54314703  0.40900631  0.91274588    -0.19000
C211        C  0.55762964  0.44403526  0.91197547    -0.28400
C212        C  0.58751578  0.46251320  0.88965263     0.44600
C213        C  0.60219318  0.39430931  0.84472843     0.05700
O214        O  0.54337753  0.35859596  0.89467211    -0.56900
H215        H  0.52063491  0.39411425  0.93017807     0.18700
O216        O  0.60229261  0.49658488  0.88684211    -0.63600
H217        H  0.62440365  0.46077398  0.85105373     0.17100
C218        C  0.58454548  0.37224192  0.81282437     0.29400
C219        C  0.59972567  0.35787434  0.78934960    -0.24500
C220        C  0.63272467  0.36507843  0.79673212    -0.23800
C221        C  0.65014387  0.38666193  0.82922819     0.40800
C222        C  0.63499600  0.40116045  0.85266249    -0.26200
O223        O  0.55294646  0.36581971  0.80310985    -0.58100
H224        H  0.58542237  0.34083485  0.76533575     0.16500
O225        O  0.68223475  0.39426470  0.83799851    -0.59600
H226        H  0.64901579  0.41797237  0.87709472     0.14900
H227        H  0.62033611  0.50537166  0.90738818     0.46800
H228        H  0.53797562  0.34204636  0.81018648     0.42100
H229        H  0.69660014  0.41633410  0.82531096     0.45600
H230        H  0.52149387  0.34923794  0.88075366     0.37100
C231        C  0.60189398  0.15558234  0.86868842    -0.27200
C232        C  0.58469617  0.17365353  0.86622456     0.02400
C233        C  0.55343138  0.16057715  0.88565922     0.30500
C234        C  0.54004245  0.13022034  0.90696614    -0.19000
C235        C  0.55750813  0.11233986  0.91010176    -0.28400
C236        C  0.58876424  0.12545822  0.89037021     0.44600
C237        C  0.59989345  0.20612999  0.84367135     0.05700
O238        O  0.53602769  0.17762487  0.88482784    -0.56900
H239        H  0.51611030  0.12103677  0.92184997     0.18700
O240        O  0.60690373  0.10919247  0.89204806    -0.63600
H241        H  0.62571356  0.16482481  0.85350631     0.17100
C242        C  0.63262174  0.23180209  0.85234077     0.29400
C243        C  0.64735408  0.26136681  0.82944227    -0.24500
C244        C  0.63036783  0.26581525  0.79690028    -0.23800
C245        C  0.59683578  0.24105374  0.78980471     0.40800
C246        C  0.58204545  0.21146074  0.81273858    -0.26200
O247        O  0.65011861  0.22854788  0.88393677    -0.58100
H248        H  0.67253257  0.28050975  0.83659642     0.16500
O249        O  0.57824584  0.24540419  0.76047757    -0.59600
H250        H  0.55670220  0.19235397  0.80585493     0.14900
H251        H  0.59949806  0.09402461  0.86831839     0.46800
H252        H  0.66740878  0.22461704  0.87122513     0.42100
H253        H  0.57304273  0.26232662  0.77153122     0.45600
H254        H  0.54416980  0.19277876  0.90856248     0.37100
C255        C  0.59050645  0.36413161  0.65851581    -0.27200
C256        C  0.60565922  0.39918835  0.65771040     0.02400
C257        C  0.63506424  0.41777823  0.68089523     0.30500
C258        C  0.64863664  0.40131244  0.70358304    -0.19000
C259        C  0.63350810  0.36631490  0.70377038    -0.28400
C260        C  0.60392638  0.34783925  0.68141946     0.44600
C261        C  0.58958654  0.41540227  0.63369699     0.05700
O262        O  0.64959423  0.45186806  0.68351058    -0.56900
H263        H  0.67094561  0.41596051  0.72145294     0.18700
O264        O  0.58717433  0.31369529  0.68284068    -0.63600
H265        H  0.56783124  0.34911390  0.64144790     0.17100
C266        C  0.60791189  0.44205292  0.60656509     0.29400
C267        C  0.59190197  0.45622505  0.58428600    -0.24500
C268        C  0.55718648  0.44369085  0.58707848    -0.23800
C269        C  0.53871593  0.41653515  0.61348930     0.40800
C270        C  0.55485191  0.40291869  0.63649786    -0.26200
O271        O  0.64135338  0.45385283  0.60046591    -0.58100
H272        H  0.60671001  0.47665386  0.56383178     0.16500
O273        O  0.50482075  0.40313217  0.61742019    -0.59600
H274        H  0.54000745  0.38242621  0.65685839     0.14900
H275        H  0.56915377  0.30758066  0.70317293     0.46800
H276        H  0.64261668  0.44099629  0.57710066     0.42100
H277        H  0.50185840  0.41656872  0.63879959     0.45600
H278        H  0.67220862  0.46084509  0.67152170     0.37100
C279        C  0.62626407  0.20799889  0.69049224    -0.27200
C280        C  0.60430861  0.20309848  0.65825085     0.02400
C281        C  0.59913588  0.22987881  0.64759778     0.30500
C282        C  0.61446770  0.25990052  0.66973065    -0.19000
C283        C  0.63481164  0.26415644  0.70341743    -0.28400
C284        C  0.64175091  0.23819605  0.71256372     0.44600
C285        C  0.58765828  0.17057643  0.63523711     0.05700
O286        O  0.57940275  0.22719666  0.61514473    -0.56900
H287        H  0.61024807  0.27988072  0.66033515     0.18700
O288        O  0.66518892  0.24293576  0.74137217    -0.63600
H289        H  0.63141023  0.18826201  0.69886428     0.17100
C290        C  0.60595065  0.15554053  0.62065050     0.29400
C291        C  0.59001455  0.12561601  0.59834653    -0.24500
C292        C  0.55561664  0.10989272  0.58931588    -0.23800
C293        C  0.53722627  0.12476615  0.60436282     0.40800
C294        C  0.55315909  0.15455371  0.62700271    -0.26200
O295        O  0.63971585  0.17027818  0.62709528    -0.58100
H296        H  0.60497721  0.11502555  0.58744487     0.16500
O297        O  0.50366663  0.11073659  0.59683694    -0.59600
H298        H  0.53831993  0.16516136  0.63829263     0.14900
H299        H  0.65379510  0.22440730  0.76102170     0.46800
H300        H  0.65005944  0.18678545  0.60495091     0.42100
H301        H  0.49251240  0.09577247  0.62016957     0.45600
H302        H  0.59494190  0.23634834  0.59184633     0.37100
C303        C  0.62719511  0.71407692  0.67065029    -0.27200
C304        C  0.59787491  0.70188837  0.64747826     0.02400
C305        C  0.58146983  0.72078221  0.64503765     0.30500
C306        C  0.59293857  0.74994932  0.66772580    -0.19000
C307        C  0.62114908  0.76120497  0.69270638    -0.28400
C308        C  0.63912564  0.74379665  0.69270816     0.44600
C309        C  0.58347141  0.66883480  0.62743294     0.05700
O310        O  0.55356708  0.71042749  0.62142413    -0.56900
H311        H  0.57880259  0.76303013  0.66715125     0.18700
O312        O  0.66777373  0.75509733  0.71508739    -0.63600
H313        H  0.64029408  0.70002718  0.67268527     0.17100
C314        C  0.60265689  0.66075481  0.60139373     0.29400
C315        C  0.58778112  0.62984055  0.58158698    -0.24500
C316        C  0.55371967  0.60674536  0.58703879    -0.23800
C317        C  0.53472610  0.61460321  0.61375007     0.40800
C318        C  0.54969864  0.64526711  0.63391914    -0.26200
O319        O  0.63534111  0.68366775  0.59319939    -0.58100
H320        H  0.60270669  0.62441966  0.56079585     0.16500
O321        O  0.50147562  0.59264934  0.62020505    -0.59600
H322        H  0.53474334  0.65081134  0.65451373     0.14900
H323        H  0.68595223  0.77095611  0.69714342     0.46800
H324        H  0.64876709  0.67538868  0.60746861     0.42100
H325        H  0.50090939  0.57773776  0.64218414     0.45600
H326        H  0.56217024  0.71838743  0.59374759     0.37100
C327        C  0.56993149  0.87281774  0.70157565    -0.27200
C328        C  0.58926259  0.89700567  0.67264114     0.02400
C329        C  0.62259222  0.90453769  0.66596066     0.30500
C330        C  0.63569811  0.88743499  0.68736030    -0.19000
C331        C  0.61584940  0.86245361  0.71505589    -0.28400
C332        C  0.58269731  0.85505720  0.72194936     0.44600
C333        C  0.57408611  0.91322720  0.64849565     0.05700
O334        O  0.64216742  0.92763238  0.63750310    -0.56900
H335        H  0.66099610  0.89277264  0.68125317     0.18700
O336        O  0.56208932  0.82951253  0.74723652    -0.63600
H337        H  0.54449505  0.86699844  0.70764702     0.17100
C338        C  0.54304283  0.89420305  0.62897094     0.29400
C339        C  0.53025347  0.90997987  0.60443191    -0.24500
C340        C  0.54791938  0.94474264  0.59877223    -0.23800
C341        C  0.57845257  0.96381695  0.61951430     0.40800
C342        C  0.59115460  0.94803290  0.64408743    -0.26200
O343        O  0.52597284  0.86000880  0.63169985    -0.58100
H344        H  0.50678254  0.89470344  0.58894559     0.16500
O345        O  0.59644554  0.99788202  0.61571731    -0.59600
H346        H  0.61462080  0.96312548  0.65966752     0.14900
H347        H  0.55312443  0.80901908  0.73050314     0.46800
H348        H  0.50602899  0.85443019  0.64851180     0.42100
H349        H  0.58710798  0.00658337  0.63643262     0.45600
H350        H  0.63744432  0.91499007  0.61175953     0.37100
C351        C  0.57490824  0.69777575  0.80064118    -0.27200
C352        C  0.59605124  0.69381475  0.82775545     0.02400
C353        C  0.62976100  0.71897785  0.83084645     0.30500
C354        C  0.64147474  0.74830209  0.80809184    -0.19000
C355        C  0.61986458  0.75268485  0.78212443    -0.28400
C356        C  0.58640427  0.72709821  0.77840022     0.44600
C357        C  0.58186708  0.66411353  0.85416319     0.05700
O358        O  0.65101519  0.71566532  0.85707656    -0.56900
H359        H  0.66709769  0.76808793  0.81164428     0.18700
O360        O  0.56430113  0.73118357  0.75456873    -0.63600
H361        H  0.54900359  0.67847865  0.79778590     0.17100
C362        C  0.55490044  0.65720017  0.88005278     0.29400
C363        C  0.54088561  0.62842735  0.90395771    -0.24500
C364        C  0.55335786  0.60611137  0.90250390    -0.23800
C365        C  0.58036001  0.61307868  0.87637407     0.40800
C366        C  0.59439185  0.64194275  0.85249694    -0.26200
O367        O  0.54287844  0.67908662  0.88316976    -0.58100
H368        H  0.52045416  0.62383164  0.92409163     0.16500
O369        O  0.59223896  0.59114044  0.87255310    -0.59600
H370        H  0.61473730  0.64674671  0.83210076     0.14900
H371        H  0.55448395  0.74135651  0.77252193     0.46800
H372        H  0.52142315  0.66847208  0.86815968     0.42100
H373        H  0.61315891  0.60100836  0.88860056     0.45600
H374        H  0.64915674  0.72564365  0.88288785     0.37100
C375        C  0.58896579  0.86411068  0.85387801    -0.27200
C376        C  0.60542778  0.89877944  0.84842764     0.02400
C377        C  0.63342726  0.91394036  0.82268329     0.30500
C378        C  0.64289774  0.89403433  0.80037341    -0.19000
C379        C  0.62473952  0.85905718  0.80358131    -0.28400
C380        C  0.59827544  0.84423902  0.83169508     0.44600
C381        C  0.59153638  0.91809752  0.86815635     0.05700
O382        O  0.65082812  0.94795175  0.81800113    -0.56900
H383        H  0.66357957  0.90578958  0.77931080     0.18700
O384        O  0.58024301  0.81021112  0.83628003    -0.63600
H385        H  0.56791830  0.85224049  0.87442367     0.17100
C386        C  0.55803126  0.90955424  0.86134531     0.29400
C387        C  0.54384826  0.92546046  0.88316983    -0.24500
C388        C  0.56276984  0.95023815  0.91165559    -0.23800
C389        C  0.59662500  0.95952729  0.91757947     0.40800
C390        C  0.61080393  0.94351806  0.89577703    -0.26200
O391        O  0.53922281  0.88610189  0.83275224    -0.58100
H392        H  0.51795712  0.91837424  0.87780980     0.16500
O393        O  0.61568656  0.98325474  0.94573141    -0.59600
H394        H  0.63651901  0.95012855  0.90148430     0.14900
H395        H  0.56005066  0.80274611  0.81933158     0.46800
H396        H  0.52338698  0.86600649  0.84822998     0.42100
H397        H  0.61276789  0.97073056  0.97120766     0.45600
H398        H  0.64114441  0.95248706  0.79363283     0.37100
C399        C  0.37540138  0.28977465  0.17736814    -0.27200
C400        C  0.40427424  0.30313302  0.15332540     0.02400
C401        C  0.42274249  0.28642752  0.15046497     0.30500
C402        C  0.41258495  0.25691398  0.17196434    -0.19000
C403        C  0.38399566  0.24358144  0.19661891    -0.28400
C404        C  0.36509257  0.26001844  0.19890797     0.44600
C405        C  0.41555315  0.33472468  0.13136890     0.05700
O406        O  0.45150013  0.29951756  0.12791269    -0.56900
H407        H  0.42779774  0.24498091  0.17052826     0.18700
O408        O  0.33717973  0.24770546  0.22290889    -0.63600
H409        H  0.36107086  0.30258605  0.17966109     0.17100
C410        C  0.40673152  0.33453903  0.09069825     0.29400
C411        C  0.42082453  0.36439002  0.06878045    -0.24500
C412        C  0.44362006  0.39491522  0.08707505    -0.23800
C413        C  0.45153181  0.39501395  0.12840818     0.40800
C414        C  0.43753720  0.36500674  0.15016314    -0.26200
O415        O  0.38520169  0.30511881  0.07179790    -0.58100
H416        H  0.41406569  0.36352936  0.03721812     0.16500
O417        O  0.47352574  0.42406555  0.14762927    -0.59600
H418        H  0.44455700  0.36523282  0.18151658     0.14900
H419        H  0.31808417  0.23544996  0.20425302     0.46800
H420        H  0.36275115  0.30273948  0.07534977     0.42100
H421        H  0.49549515  0.42503813  0.14590450     0.45600
H422        H  0.44463848  0.28808848  0.10131400     0.37100
C423        C  0.37468983  0.27869114  0.33774706    -0.27200
C424        C  0.40485475  0.30778965  0.32873420     0.02400
C425        C  0.42543042  0.30704008  0.29772130     0.30500
C426        C  0.41648599  0.27717835  0.27749781    -0.19000
C427        C  0.38639994  0.24807053  0.28638693    -0.28400
C428        C  0.36533122  0.24894045  0.31667113     0.44600
C429        C  0.41659252  0.33757450  0.35485696     0.05700
O430        O  0.45543425  0.33479110  0.28891442    -0.56900
H431        H  0.43346827  0.27663377  0.25518885     0.18700
O432        O  0.33553742  0.22096758  0.32555058    -0.63600
H433        H  0.35868296  0.27895502  0.36165227     0.17100
C434        C  0.42537415  0.36917155  0.33887342     0.29400
C435        C  0.43939806  0.39729232  0.36407201    -0.24500
C436        C  0.44463475  0.39444075  0.40552621    -0.23800
C437        C  0.43512721  0.36246407  0.42145049     0.40800
C438        C  0.42107876  0.33449379  0.39621653    -0.26200
O439        O  0.42060386  0.37288156  0.29864432    -0.58100
H440        H  0.44621225  0.42139051  0.35102080     0.16500
O441        O  0.43984195  0.35811369  0.46149626    -0.59600
H442        H  0.41462273  0.31032701  0.40881871     0.14900
H443        H  0.33977985  0.21169895  0.35050941     0.46800
H444        H  0.39680552  0.36678151  0.29633544     0.42100
H445        H  0.46254534  0.36069060  0.46291000     0.45600
H446        H  0.45239485  0.34227255  0.26188320     0.37100
C447        C  0.37962683  0.08951979  0.31663172    -0.27200
C448        C  0.41175313  0.10443194  0.33367497     0.02400
C449        C  0.43287898  0.13914509  0.33002482     0.30500
C450        C  0.42181553  0.15844466  0.30971020    -0.19000
C451        C  0.38988153  0.14357861  0.29233649    -0.28400
C452        C  0.36867526  0.10887671  0.29589464     0.44600
C453        C  0.42301764  0.08405288  0.35623648     0.05700
O454        O  0.46443666  0.15443424  0.34618744    -0.56900
H455        H  0.43848530  0.18508572  0.30673419     0.18700
O456        O  0.33743220  0.09367444  0.27889291    -0.63600
H457        H  0.36317793  0.06281512  0.31913951     0.17100
C458        C  0.40655014  0.06719371  0.39182398     0.29400
C459        C  0.41970266  0.05112104  0.41524452    -0.24500
C460        C  0.44900433  0.05112604  0.40331660    -0.23800
C461        C  0.46490154  0.06715068  0.36699126     0.40800
C462        C  0.45187428  0.08345122  0.34376770    -0.26200
O463        O  0.37878057  0.06806689  0.40522912    -0.58100
H464        H  0.40715633  0.03893370  0.44308683     0.16500
O465        O  0.49394412  0.06828953  0.35479978    -0.59600
H466        H  0.46478716  0.09639369  0.31642827     0.14900
H467        H  0.32326393  0.09767902  0.29814398     0.46800
H468        H  0.35953871  0.04667232  0.39621428     0.42100
H469        H  0.51202465  0.08766288  0.36925019     0.45600
H470        H  0.46155283  0.15889896  0.37487311     0.37100
C471        C  0.43136075  0.13012284  0.17839095    -0.27200
C472        C  0.40735257  0.10134480  0.15866319     0.02400
C473        C  0.37336650  0.09211777  0.16121600     0.30500
C474        C  0.36369420  0.11165929  0.18391385    -0.19000
C475        C  0.38782988  0.14048513  0.20366399    -0.28400
C476        C  0.42184133  0.14990911  0.20035219     0.44600
C477        C  0.41869218  0.08233347  0.13392287     0.05700
O478        O  0.34958901  0.06406157  0.14184913    -0.56900
H479        H  0.33752128  0.10456769  0.18584317     0.18700
O480        O  0.44597480  0.17875272  0.21801836    -0.63600
H481        H  0.45762390  0.13763083  0.17592783     0.17100
C482        C  0.42406212  0.08850678  0.09225223     0.29400
C483        C  0.43824825  0.07298073  0.06976728    -0.24500
C484        C  0.44751820  0.05128715  0.08841951    -0.23800
C485        C  0.44141055  0.04469977  0.13027010     0.40800
C486        C  0.42715728  0.06030186  0.15266259    -0.26200
O487        O  0.41596964  0.11008301  0.07339244    -0.58100
H488        H  0.44258932  0.07853761  0.03774994     0.16500
O489        O  0.44872012  0.02272084  0.14952322    -0.59600
H490        H  0.42314253  0.05559469  0.18488235     0.14900
H491        H  0.45040097  0.19669515  0.19831276     0.46800
H492        H  0.43586251  0.13250543  0.07670979     0.42100
H493        H  0.47105726  0.03674630  0.16180943     0.45600
H494        H  0.34764894  0.07169644  0.11442441     0.37100
C495        C  0.71358602  0.08195913  0.32033982    -0.27200
C496        C  0.70165036  0.09611490  0.34879388     0.02400
C497        C  0.72029221  0.13035038  0.35753575     0.30500
C498        C  0.74942358  0.15051429  0.33595860    -0.19000
C499        C  0.76083324  0.13688944  0.30594463    -0.28400
C500        C  0.74352152  0.10202865  0.29965642     0.44600
C501        C  0.66952933  0.07556831  0.36930095     0.05700
O502        O  0.70969330  0.14445624  0.38643853    -0.56900
H503        H  0.76223732  0.17717815  0.34145011     0.18700
O504        O  0.75522009  0.08750044  0.27279017    -0.63600
H505        H  0.69966075  0.05540433  0.31419760     0.17100
C506        C  0.63918869  0.06590651  0.34923274     0.29400
C507        C  0.60916457  0.05075437  0.37103784    -0.24500
C508        C  0.60910291  0.04525818  0.41295657    -0.23800
C509        C  0.63965472  0.05364384  0.43233618     0.40800
C510        C  0.66948050  0.06894125  0.41054976    -0.26200
O511        O  0.63880499  0.07212998  0.30867796    -0.58100
H512        H  0.58610107  0.04432862  0.35535532     0.16500
O513        O  0.64090210  0.04764836  0.47277585    -0.59600
H514        H  0.69283920  0.07638929  0.42611548     0.14900
H515        H  0.77133935  0.08359927  0.28840815     0.46800
H516        H  0.64036913  0.09436841  0.30718077     0.42100
H517        H  0.63599328  0.02413029  0.47432119     0.45600
H518        H  0.69474877  0.15076969  0.37195133     0.37100
C519        C  0.66995658  0.08814968  0.10232640    -0.27200
C520        C  0.66649523  0.08009458  0.14352677     0.02400
C521        C  0.63475710  0.05813487  0.15943591     0.30500
C522        C  0.60684830  0.04460366  0.13408798    -0.19000
C523        C  0.61005037  0.05289760  0.09271329    -0.28400
C524        C  0.64210229  0.07507472  0.07699656     0.44600
C525        C  0.69581213  0.09715203  0.17008280     0.05700
O526        O  0.63071829  0.05018003  0.19983009    -0.56900
H527        H  0.58263301  0.02767891  0.14698998     0.18700
O528        O  0.64658623  0.08473477  0.03716856    -0.63600
H529        H  0.69426550  0.10560354  0.09002074     0.17100
C530        C  0.72487101  0.09505824  0.16296013     0.29400
C531        C  0.75356115  0.11445367  0.18587140    -0.24500
C532        C  0.75353994  0.13595865  0.21591378    -0.23800
C533        C  0.72443468  0.13802306  0.22293834     0.40800
C534        C  0.69566001  0.11823754  0.20055223    -0.26200
O535        O  0.72570113  0.07488575  0.13294739    -0.58100
H536        H  0.77608606  0.11328418  0.17970784     0.16500
O537        O  0.72432924  0.16038686  0.25030355    -0.59600
H538        H  0.67364101  0.12058411  0.20558783     0.14900
H539        H  0.64401260  0.10489734  0.03637071     0.46800
H540        H  0.71738894  0.05275216  0.14580473     0.42100
H541        H  0.73315244  0.18173065  0.23527779     0.45600
H542        H  0.63673205  0.03240499  0.20283961     0.37100
C543        C  0.93279593  0.36977363  0.33940233    -0.27200
C544        C  0.91626565  0.33845397  0.35830294     0.02400
C545        C  0.91576780  0.33651461  0.40074626     0.30500
C546        C  0.93172190  0.36555385  0.42373780    -0.19000
C547        C  0.94791149  0.39714411  0.40519291    -0.28400
C548        C  0.94856463  0.39905964  0.36245684     0.44600
C549        C  0.89815099  0.30780225  0.33398985     0.05700
O550        O  0.89895275  0.30632168  0.42016802    -0.56900
H551        H  0.93071301  0.36315623  0.45639622     0.18700
O552        O  0.96371120  0.42924177  0.34286193    -0.63600
H553        H  0.93331847  0.37152019  0.30667204     0.17100
C554        C  0.87253336  0.30378613  0.30751805     0.29400
C555        C  0.85313956  0.27323434  0.28826505    -0.24500
C556        C  0.85968338  0.24681738  0.29386821    -0.23800
C557        C  0.88553277  0.25089531  0.31985892     0.40800
C558        C  0.90463741  0.28131285  0.33974790    -0.26200
O559        O  0.86498074  0.32886202  0.30224186    -0.58100
H560        H  0.83256595  0.26997853  0.26928622     0.16500
O561        O  0.89180837  0.22513952  0.32661335    -0.59600
H562        H  0.92427476  0.28413974  0.36016658     0.14900
H563        H  0.98613518  0.43301078  0.33511450     0.46800
H564        H  0.87387421  0.33829698  0.27509798     0.42100
H565        H  0.90609828  0.22594833  0.30368758     0.45600
H566        H  0.87526300  0.30095599  0.42083183     0.37100
C567        C  0.77344589  0.35954418  0.66041195    -0.27200
C568        C  0.79309048  0.39458923  0.65731599     0.02400
C569        C  0.78136148  0.41422235  0.67684559     0.30500
C570        C  0.75102662  0.39904353  0.69833317    -0.19000
C571        C  0.73207243  0.36423805  0.70213985    -0.28400
C572        C  0.74334382  0.34445887  0.68258566     0.44600
C573        C  0.82520914  0.41039781  0.63326048     0.05700
O574        O  0.79960503  0.44840503  0.67578612    -0.56900
H575        H  0.74244192  0.41465116  0.71250489     0.18700
O576        O  0.72553562  0.31034309  0.68576121    -0.63600
H577        H  0.78126034  0.34367837  0.64527233     0.17100
C578        C  0.84901302  0.39955101  0.63669745     0.29400
C579        C  0.87854304  0.41453616  0.61338192    -0.24500
C580        C  0.88587779  0.44141136  0.58721175    -0.23800
C581        C  0.86226654  0.45245332  0.58408055     0.40800
C582        C  0.83233642  0.43681459  0.60638774    -0.26200
O583        O  0.84415262  0.37482857  0.66348838    -0.58100
H584        H  0.89625088  0.40565433  0.61670368     0.16500
O585        O  0.86794016  0.47840481  0.55893075    -0.59600
H586        H  0.81442691  0.44533235  0.60224250     0.14900
H587        H  0.70880584  0.30289718  0.66365915     0.46800
H588        H  0.85382522  0.38651058  0.68940878     0.42100
H589        H  0.85829895  0.46789739  0.53246939     0.45600
H590        H  0.81376727  0.45485516  0.70039804     0.37100
C591        C  0.93436870  0.36295601  0.15537439    -0.27200
C592        C  0.91085942  0.33291503  0.13729252     0.02400
C593        C  0.90449429  0.33202073  0.09561296     0.30500
C594        C  0.92121079  0.36100571  0.07255689    -0.19000
C595        C  0.94443118  0.39146806  0.09043454    -0.28400
C596        C  0.95115272  0.39216606  0.13231362     0.44600
C597        C  0.89207265  0.30261157  0.16196156     0.05700
O598        O  0.88158547  0.30292146  0.07718686    -0.56900
H599        H  0.91548734  0.35960003  0.04057447     0.18700
O600        O  0.97364436  0.42118649  0.15120063    -0.63600
H601        H  0.93928065  0.36385074  0.18756254     0.17100
C602        C  0.90833853  0.28782389  0.18225665     0.29400
C603        C  0.88958495  0.25823603  0.20401337    -0.24500
C604        C  0.85463788  0.24306542  0.20533677    -0.23800
C605        C  0.83845508  0.25796557  0.18504897     0.40800
C606        C  0.85720418  0.28762801  0.16375225    -0.26200
O607        O  0.94242743  0.30194459  0.18067267    -0.58100
H608        H  0.90223784  0.24714309  0.21998611     0.16500
O609        O  0.80448637  0.24469612  0.18790256    -0.59600
H610        H  0.84451288  0.29908023  0.14863389     0.14900
H611        H  0.99543828  0.42183657  0.14898435     0.46800
H612        H  0.94693909  0.29242492  0.15606346     0.42100
H613        H  0.79536281  0.23226184  0.16228339     0.45600
H614        H  0.89351195  0.29026823  0.07238923     0.37100
C615        C  0.85112609  0.40469134  0.85437643    -0.27200
C616        C  0.82675317  0.41414731  0.86141188     0.02400
C617        C  0.83318262  0.43827919  0.89172747     0.30500
C618        C  0.86340902  0.45262102  0.91363765    -0.19000
C619        C  0.88760888  0.44294507  0.90677292    -0.28400
C620        C  0.88110424  0.41870569  0.87666713     0.44600
C621        C  0.79450143  0.39781285  0.83788131     0.05700
O622        O  0.80914702  0.44634921  0.90209191    -0.56900
H623        H  0.86746344  0.47072641  0.93705259     0.18700
O624        O  0.90399515  0.40864036  0.86847744    -0.63600
H625        H  0.84696931  0.38633461  0.83126704     0.17100
C626        C  0.78169760  0.41661174  0.81879605     0.29400
C627        C  0.75109410  0.40048197  0.79789243    -0.24500
C628        C  0.73331280  0.36562356  0.79368683    -0.23800
C629        C  0.74660660  0.34685429  0.81121381     0.40800
C630        C  0.77654829  0.36280673  0.83350254    -0.26200
O631        O  0.79934748  0.45082899  0.81928081    -0.58100
H632        H  0.74155656  0.41541492  0.78415680     0.16500
O633        O  0.73079642  0.31289713  0.80633648    -0.59600
H634        H  0.78587702  0.34769306  0.84730042     0.14900
H635        H  0.91781335  0.42318256  0.84602578     0.46800
H636        H  0.81033073  0.45737824  0.79241867     0.42100
H637        H  0.73808880  0.30929127  0.77944455     0.45600
H638        H  0.81873015  0.47030239  0.89539108     0.37100
C639        C  0.91629211  0.62712303  0.31361263    -0.27200
C640        C  0.90125159  0.60038144  0.34091698     0.02400
C641        C  0.86636000  0.58293508  0.34520626     0.30500
C642        C  0.84687683  0.59235048  0.32263232    -0.19000
C643        C  0.86161523  0.61929362  0.29549872    -0.28400
C644        C  0.89668949  0.63691479  0.29123145     0.44600
C645        C  0.92150500  0.59011710  0.36507502     0.05700
O646        O  0.85103185  0.55633416  0.37118706    -0.56900
H647        H  0.81994731  0.57801558  0.32572841     0.18700
O648        O  0.91194376  0.66346198  0.26522023    -0.63600
H649        H  0.94319942  0.64058044  0.31005818     0.17100
C650        C  0.93735083  0.57409596  0.34681682     0.29400
C651        C  0.95210012  0.56000864  0.37093488    -0.24500
C652        C  0.95103981  0.56135333  0.41348640    -0.23800
C653        C  0.93613057  0.57866342  0.43154935     0.40800
C654        C  0.92144263  0.59269939  0.40730227    -0.26200
O655        O  0.93740298  0.57092782  0.30551833    -0.58100
H656        H  0.96349406  0.54710975  0.35615546     0.16500
O657        O  0.93461578  0.58107176  0.47280221    -0.59600
H658        H  0.90904272  0.60484708  0.42155214     0.14900
H659        H  0.91551532  0.68314376  0.28125569     0.46800
H660        H  0.91567408  0.55104243  0.29889908     0.42100
H661        H  0.95467906  0.60250256  0.48008542     0.45600
H662        H  0.84910451  0.53693244  0.35582607     0.37100
C663        C  0.94089277  0.57719222  0.15106357    -0.27200
C664        C  0.91839969  0.58534702  0.13270106     0.02400
C665        C  0.91138577  0.57893623  0.09121321     0.30500
C666        C  0.92621299  0.56386686  0.06893365    -0.19000
C667        C  0.94798657  0.55461668  0.08748064    -0.28400
C668        C  0.95542475  0.56170335  0.12899379     0.44600
C669        C  0.89970249  0.59706255  0.15801733     0.05700
O670        O  0.88924161  0.58630310  0.07244500    -0.56900
H671        H  0.91995106  0.55873438  0.03715684     0.18700
O672        O  0.97705582  0.55394700  0.14833493    -0.63600
H673        H  0.94656906  0.58213707  0.18300188     0.17100
C674        C  0.87970561  0.57700575  0.19002077     0.29400
C675        C  0.86065995  0.58700238  0.21275657    -0.24500
C676        C  0.86149180  0.61727714  0.20464913    -0.23800
C677        C  0.88133002  0.63738504  0.17246422     0.40800
C678        C  0.90040272  0.62726363  0.14941905    -0.26200
O679        O  0.87788192  0.54702074  0.19859624    -0.58100
H680        H  0.84455516  0.57061142  0.23632741     0.16500
O681        O  0.88255610  0.66709519  0.16381720    -0.59600
H682        H  0.91561921  0.64287900  0.12475882     0.14900
H683        H  0.96265697  0.53204774  0.16142127     0.46800
H684        H  0.85998107  0.53054258  0.18080199     0.42100
H685        H  0.86772597  0.66242157  0.14005564     0.45600
H686        H  0.86712132  0.56588983  0.07530570     0.37100
C687        C  0.66559455  0.58723948  0.39978268    -0.27200
C688        C  0.66310226  0.58223656  0.35790580     0.02400
C689        C  0.63140478  0.56353639  0.33999495     0.30500
C690        C  0.60266867  0.54997694  0.36416032    -0.19000
C691        C  0.60506845  0.55441947  0.40642214    -0.28400
C692        C  0.63708180  0.57336145  0.42408457     0.44600
C693        C  0.69399140  0.59423286  0.33398768     0.05700
O694        O  0.62832448  0.55782969  0.29904094    -0.56900
H695        H  0.57853182  0.53542382  0.34980672     0.18700
O696        O  0.64098807  0.57864681  0.46507790    -0.63600
H697        H  0.68991928  0.60109589  0.41393485     0.17100
C698        C  0.71825847  0.62836739  0.33263365     0.29400
C699        C  0.74818742  0.63866786  0.31144890    -0.24500
C700        C  0.75435473  0.61504153  0.29247547    -0.23800
C701        C  0.73059770  0.58089334  0.29515020     0.40800
C702        C  0.70041007  0.57074870  0.31512182    -0.26200
O703        O  0.71256910  0.65174302  0.35121054    -0.58100
H704        H  0.76655614  0.66496582  0.30987256     0.16500
O705        O  0.73685257  0.55723654  0.27850477    -0.59600
H706        H  0.68234697  0.54436135  0.31698922     0.14900
H707        H  0.64610134  0.56145179  0.47546468     0.46800
H708        H  0.72502640  0.65694289  0.37713800     0.42100
H709        H  0.75009360  0.55322525  0.29915019     0.45600
H710        H  0.62845352  0.57761483  0.28714398     0.37100
C711        C  0.63521668  0.58032143  0.15261889    -0.27200
C712        C  0.66477110  0.58387105  0.13570704     0.02400
C713        C  0.66499674  0.57519489  0.09493951     0.30500
C714        C  0.63584627  0.56235449  0.07195306    -0.19000
C715        C  0.60579714  0.55766535  0.08890598    -0.28400
C716        C  0.60575795  0.56711675  0.12962854     0.44600
C717        C  0.69483644  0.59442839  0.16099395     0.05700
O718        O  0.69354756  0.57853256  0.07747522    -0.56900
H719        H  0.63670616  0.55531750  0.04085761     0.18700
O720        O  0.57732456  0.56403590  0.14708629    -0.63600
H721        H  0.63472701  0.58686198  0.18403237     0.17100
C722        C  0.71108128  0.62581231  0.18023997     0.29400
C723        C  0.74072132  0.63556344  0.20184262    -0.24500
C724        C  0.75440386  0.61432498  0.20412488    -0.23800
C725        C  0.73778930  0.58277712  0.18547413     0.40800
C726        C  0.70812219  0.57294397  0.16445843    -0.26200
O727        O  0.69909547  0.64764162  0.17640343    -0.58100
H728        H  0.75327453  0.65981613  0.21635921     0.16500
O729        O  0.74991144  0.56099672  0.18874833    -0.59600
H730        H  0.69555052  0.54850111  0.15039165     0.14900
H731        H  0.56794191  0.54319806  0.16322863     0.46800
H732        H  0.68647612  0.64518007  0.20171805     0.42100
H733        H  0.76162202  0.56294011  0.16279305     0.45600
H734        H  0.70545168  0.60161288  0.06674390     0.37100
C735        C  0.27965117  0.90488150  0.66376797    -0.27200
C736        C  0.30403403  0.89534742  0.65800663     0.02400
C737        C  0.30171775  0.86796091  0.67955365     0.30500
C738        C  0.27473463  0.84979274  0.70529837    -0.19000
C739        C  0.24977343  0.85846415  0.71004334    -0.28400
C740        C  0.25237985  0.88637618  0.68948789     0.44600
C741        C  0.33194262  0.91365638  0.62949542     0.05700
O742        O  0.32603793  0.85910019  0.67592592    -0.56900
H743        H  0.27260916  0.82799633  0.72042948     0.18700
O744        O  0.22790474  0.89496208  0.69323074    -0.63600
H745        H  0.28131949  0.92604656  0.64745958     0.17100
C746        C  0.33744341  0.89674445  0.59746904     0.29400
C747        C  0.36685141  0.91283676  0.57488004    -0.24500
C748        C  0.39067446  0.94618573  0.58291181    -0.23800
C749        C  0.38419192  0.96372731  0.61337615     0.40800
C750        C  0.35490613  0.94740048  0.63641375    -0.26200
O751        O  0.31455998  0.86418875  0.58869338    -0.58100
H752        H  0.37107049  0.89916148  0.55103395     0.16500
O753        O  0.40692314  0.99633773  0.62206512    -0.59600
H754        H  0.35084146  0.96066554  0.66089775     0.14900
H755        H  0.23207811  0.90646975  0.71973332     0.46800
H756        H  0.29760968  0.86537661  0.57137259     0.42100
H757        H  0.42140579  0.99524923  0.64353105     0.45600
H758        H  0.31534862  0.83741086  0.66142485     0.37100
C759        C  0.13676470  0.71513535  0.64770651    -0.27200
C760        C  0.10268926  0.69638999  0.65702381     0.02400
C761        C  0.08875306  0.70857931  0.68577074     0.30500
C762        C  0.10934893  0.73858562  0.70599964    -0.19000
C763        C  0.14389569  0.75612065  0.69860820    -0.28400
C764        C  0.15742472  0.74450193  0.66852504     0.44600
C765        C  0.08300277  0.66317322  0.63826517     0.05700
O766        O  0.05581008  0.68995568  0.69676855    -0.56900
H767        H  0.09869088  0.74713291  0.72922425     0.18700
O768        O  0.19116648  0.76039469  0.66113837    -0.63600
H769        H  0.14770951  0.70609731  0.62541887     0.17100
C770        C  0.05415435  0.65481322  0.61545781     0.29400
C771        C  0.03803443  0.62432804  0.59497399    -0.24500
C772        C  0.05081193  0.60222689  0.59603185    -0.23800
C773        C  0.07899977  0.61010390  0.62007894     0.40800
C774        C  0.09482213  0.64037330  0.64097496    -0.26200
O775        O  0.04241820  0.67683504  0.61143129    -0.58100
H776        H  0.01641894  0.61874133  0.57656558     0.16500
O777        O  0.09160328  0.58870921  0.62290769    -0.59600
H778        H  0.11685546  0.64641189  0.65879783     0.14900
H779        H  0.20044123  0.75122907  0.68130293     0.46800
H780        H  0.05409602  0.69056312  0.58739955     0.42100
H781        H  0.07919980  0.57345336  0.64555774     0.45600
H782        H  0.04491081  0.70248527  0.68656397     0.37100
C783        C  0.36378697  0.93793379  0.85560884    -0.27200
C784        C  0.33919716  0.90623918  0.86894585     0.02400
C785        C  0.34455992  0.89302911  0.90483853     0.30500
C786        C  0.37447190  0.91092850  0.92598153    -0.19000
C787        C  0.39894432  0.94250798  0.91260997    -0.28400
C788        C  0.39337805  0.95623481  0.87745656     0.44600
C789        C  0.30852500  0.88673984  0.84471544     0.05700
O790        O  0.32065159  0.86272966  0.91965689    -0.56900
H791        H  0.37833344  0.90033842  0.95337177     0.18700
O792        O  0.41699124  0.98708220  0.86370684    -0.63600
H793        H  0.36031199  0.94828348  0.82779814     0.17100
C794        C  0.28937515  0.90103877  0.83102285     0.29400
C795        C  0.26087797  0.88217371  0.80748417    -0.24500
C796        C  0.25066357  0.84881172  0.79833193    -0.23800
C797        C  0.26947451  0.83435690  0.81232153     0.40800
C798        C  0.29836996  0.85341071  0.83495785    -0.26200
O799        O  0.29799647  0.93322005  0.84095733    -0.58100
H800        H  0.24637567  0.89336364  0.79692603     0.16500
O801        O  0.25965101  0.80157458  0.80403330    -0.59600
H802        H  0.31300777  0.84213024  0.84468059     0.14900
H803        H  0.43172149  0.98281175  0.84571475     0.46800
H804        H  0.28903624  0.93186685  0.86862970     0.42100
H805        H  0.27533045  0.80218345  0.78302480     0.45600
H806        H  0.30643741  0.86783902  0.93746047     0.37100
C807        C  0.12348597  0.68687502  0.79965886    -0.27200
C808        C  0.10188168  0.68673842  0.82968273     0.02400
C809        C  0.10024475  0.71590803  0.83747273     0.30500
C810        C  0.12125943  0.74524492  0.81645286    -0.19000
C811        C  0.14356715  0.74562724  0.78729616    -0.28400
C812        C  0.14446786  0.71612779  0.77869490     0.44600
C813        C  0.08461534  0.65733616  0.85603651     0.05700
O814        O  0.07997457  0.71653432  0.86751665    -0.56900
H815        H  0.12071215  0.76794721  0.82349999     0.18700
O816        O  0.16640552  0.71585605  0.75078220    -0.63600
H817        H  0.12496578  0.66450690  0.79363178     0.17100
C818        C  0.04960025  0.63887505  0.85846452     0.29400
C819        C  0.03434803  0.61104788  0.88391812    -0.24500
C820        C  0.05369953  0.60120966  0.90699589    -0.23800
C821        C  0.08888446  0.62035832  0.90497446     0.40800
C822        C  0.10396013  0.64791718  0.87935719    -0.26200
O823        O  0.03012875  0.64760344  0.83585497    -0.58100
H824        H  0.00731803  0.59686998  0.88508693     0.16500
O825        O  0.10889760  0.61264994  0.92807026    -0.59600
H826        H  0.13099326  0.66232855  0.87802465     0.14900
H827        H  0.18803580  0.72486139  0.76522200     0.46800
H828        H  0.02839644  0.63741292  0.80887399     0.42100
H829        H  0.11158853  0.62438400  0.95416539     0.45600
H830        H  0.06073931  0.71594344  0.85325712     0.37100
C831        C  0.30341489  0.42399259  0.69496777    -0.27200
C832        C  0.30606525  0.40432939  0.66442210     0.02400
C833        C  0.27873626  0.37238468  0.65650023     0.30500
C834        C  0.24911749  0.36090624  0.67868437    -0.19000
C835        C  0.24635199  0.38106435  0.70861457    -0.28400
C836        C  0.27367040  0.41298702  0.71635043     0.44600
C837        C  0.33671732  0.41863745  0.63946060     0.05700
O838        O  0.28032515  0.35270922  0.62635827    -0.56900
H839        H  0.22799759  0.33658466  0.67195060     0.18700
O840        O  0.27055412  0.43449056  0.74250858    -0.63600
H841        H  0.32422808  0.44856069  0.70144587     0.17100
C842        C  0.34877585  0.45008426  0.62106635     0.29400
C843        C  0.37787691  0.46362115  0.59786855    -0.24500
C844        C  0.39553629  0.44630038  0.59237010    -0.23800
C845        C  0.38364955  0.41491244  0.61132641     0.40800
C846        C  0.35437674  0.40131446  0.63449729    -0.26200
O847        O  0.33133723  0.46706034  0.62399746    -0.58100
H848        H  0.38621809  0.48759683  0.58352617     0.16500
O849        O  0.40022024  0.39717725  0.60737191    -0.59600
H850        H  0.34562322  0.37731478  0.64897821     0.14900
H851        H  0.28884125  0.44138271  0.76255610     0.46800
H852        H  0.34492770  0.48643527  0.64177450     0.42100
H853        H  0.41611185  0.40442605  0.63037088     0.45600
H854        H  0.27493880  0.36065200  0.60105966     0.37100
C855        C  0.28999439  0.37357181  0.81456095    -0.27200
C856        C  0.30035708  0.40074010  0.84119980     0.02400
C857        C  0.27906604  0.41396786  0.84838636     0.30500
C858        C  0.24911778  0.40167088  0.82728064    -0.19000
C859        C  0.23947836  0.37586655  0.79877897    -0.28400
C860        C  0.25956482  0.36083287  0.79374671     0.44600
C861        C  0.33362717  0.41608684  0.86079870     0.05700
O862        O  0.28790325  0.43986327  0.87501010    -0.56900
H863        H  0.23433367  0.41383494  0.83157623     0.18700
O864        O  0.25043134  0.33469099  0.76743175    -0.63600
H865        H  0.30597275  0.36290954  0.80893633     0.17100
C866        C  0.34332101  0.39706151  0.88463187     0.29400
C867        C  0.37349967  0.41286127  0.90596035    -0.24500
C868        C  0.39446792  0.44768350  0.90399770    -0.23800
C869        C  0.38522006  0.46655762  0.87900557     0.40800
C870        C  0.35514733  0.45070108  0.85751064    -0.26200
O871        O  0.32252442  0.36337136  0.88931743    -0.58100
H872        H  0.37996331  0.39784442  0.92515913     0.16500
O873        O  0.40512464  0.50049210  0.87561238    -0.59600
H874        H  0.34828015  0.46560654  0.83866627     0.14900
H875        H  0.23298692  0.31484500  0.78182598     0.46800
H876        H  0.33246265  0.35266873  0.87250414     0.42100
H877        H  0.42065562  0.50379325  0.85301661     0.45600
H878        H  0.27861726  0.42912162  0.90148261     0.37100
C879        C  0.05829649  0.39738835  0.60801969    -0.27200
C880        C  0.08470433  0.41768611  0.63397343     0.02400
C881        C  0.09448734  0.45181869  0.63760609     0.30500
C882        C  0.07882412  0.46537968  0.61430171    -0.19000
C883        C  0.05274934  0.44522450  0.58780869    -0.28400
C884        C  0.04216888  0.41083628  0.58522748     0.44600
C885        C  0.10351405  0.40381285  0.65502446     0.05700
O886        O  0.11967640  0.47227724  0.66346449    -0.56900
H887        H  0.08700210  0.49175207  0.61712392     0.18700
O888        O  0.01752591  0.39057431  0.55868411    -0.63600
H889        H  0.05083531  0.37124314  0.60443010     0.17100
C890        C  0.08746356  0.37504321  0.67946460     0.29400
C891        C  0.10643694  0.36352784  0.69999731    -0.24500
C892        C  0.14145233  0.38074420  0.69700298    -0.23800
C893        C  0.15728161  0.40907914  0.67177183     0.40800
C894        C  0.13831483  0.42003905  0.65071795    -0.26200
O895        O  0.05343978  0.35858819  0.68434761    -0.58100
H896        H  0.09392780  0.34178914  0.71934713     0.16500
O897        O  0.19144037  0.42709741  0.66863072    -0.59600
H898        H  0.15098018  0.44183370  0.63147624     0.14900
H899        H  0.99701718  0.37869065  0.57536348     0.46800
H900        H  0.04932749  0.36981267  0.70749920     0.42100
H901        H  0.19895059  0.44232397  0.69229700     0.45600
H902        H  0.10952302  0.46704919  0.69085380     0.37100
C903        C  0.09530246  0.37005228  0.83930583    -0.27200
C904        C  0.09963726  0.40210799  0.83325111     0.02400
C905        C  0.12169531  0.42267534  0.80293467     0.30500
C906        C  0.14028045  0.41178125  0.78061303    -0.19000
C907        C  0.13639443  0.37991946  0.78704220    -0.28400
C908        C  0.11338500  0.35885259  0.81626730     0.44600
C909        C  0.08295213  0.41491794  0.86038560     0.05700
O910        O  0.12577557  0.45377733  0.79556608    -0.56900
H911        H  0.15832498  0.42857611  0.75879243     0.18700
O912        O  0.10917118  0.32768108  0.82332140    -0.63600
H913        H  0.07860971  0.35406792  0.86274669     0.17100
C914        C  0.04798325  0.39857923  0.86423493     0.29400
C915        C  0.03302957  0.41219684  0.88904554    -0.24500
C916        C  0.05260236  0.44188215  0.91080885    -0.23800
C917        C  0.08777268  0.45730602  0.90817364     0.40800
C918        C  0.10255067  0.44398001  0.88285721    -0.26200
O919        O  0.02822061  0.37017017  0.84245730    -0.58100
H920        H  0.00601729  0.39973067  0.89067050     0.16500
O921        O  0.10808356  0.48543463  0.93012829    -0.59600
H922        H  0.12955735  0.45633179  0.88090268     0.14900
H923        H  0.09203322  0.31288595  0.80354427     0.46800
H924        H  0.02120843  0.35155521  0.86198700     0.42100
H925        H  0.11120296  0.47713756  0.95652280     0.45600
H926        H  0.10967022  0.45041662  0.77370226     0.37100
C927        C  0.14256228  0.57029983  0.15157971    -0.27200
C928        C  0.17329165  0.58546706  0.13083575     0.02400
C929        C  0.17265017  0.58389835  0.08816757     0.30500
C930        C  0.14201910  0.56796923  0.06721265    -0.19000
C931        C  0.11112125  0.55311639  0.08784593    -0.28400
C932        C  0.11187663  0.55443163  0.13068900     0.44600
C933        C  0.20563955  0.60302986  0.15398831     0.05700
O934        O  0.20186849  0.59825893  0.06646599    -0.56900
H935        H  0.14259370  0.56749606  0.03444829     0.18700
O936        O  0.08283947  0.53993992  0.15272544    -0.63600
H937        H  0.14229744  0.57057666  0.18436508     0.17100
C938        C  0.21128056  0.62784522  0.18294192     0.29400
C939        C  0.24118575  0.64332239  0.20531830    -0.24500
C940        C  0.26607171  0.63442341  0.19987258    -0.23800
C941        C  0.26091956  0.61028081  0.17022637     0.40800
C942        C  0.23102240  0.59484358  0.14765516    -0.26200
O943        O  0.18814162  0.63802171  0.18856673    -0.58100
H944        H  0.24490200  0.66237091  0.22722201     0.16500
O945        O  0.28458754  0.60095279  0.16372947    -0.59600
H946        H  0.22736235  0.57583158  0.12572694     0.14900
H947        H  0.07760274  0.55808577  0.15773531     0.46800
H948        H  0.17739635  0.62839382  0.21492335     0.42100
H949        H  0.27766628  0.58098695  0.18095388     0.45600
H950        H  0.20697776  0.62152352  0.06142515     0.37100
C951        C  0.22604564  0.63689092  0.34132340    -0.27200
C952        C  0.20295035  0.60262810  0.33711025     0.02400
C953        C  0.21078543  0.58382375  0.30981344     0.30500
C954        C  0.24096255  0.59917129  0.28772461    -0.19000
C955        C  0.26407515  0.63337954  0.29231921    -0.28400
C956        C  0.25627542  0.65213622  0.31946091     0.44600
C957        C  0.17116870  0.58689058  0.36164675     0.05700
O958        O  0.18931278  0.55030581  0.30483106    -0.56900
H959        H  0.24645089  0.58423258  0.26705266     0.18700
O960        O  0.27730215  0.68583608  0.32332918    -0.63600
H961        H  0.22045364  0.65207426  0.36143044     0.17100
C962        C  0.17182584  0.59031023  0.40417344     0.29400
C963        C  0.14199359  0.57552691  0.42681729    -0.24500
C964        C  0.11055453  0.55713652  0.40807498    -0.23800
C965        C  0.10989800  0.55411449  0.36527062     0.40800
C966        C  0.13985171  0.56867823  0.34269567    -0.26200
O967        O  0.20165669  0.60794664  0.42414417    -0.58100
H968        H  0.14360693  0.57860078  0.45939080     0.16500
O969        O  0.08015729  0.53737198  0.34487587    -0.59600
H970        H  0.13853756  0.56608340  0.31004522     0.14900
H971        H  0.29078959  0.68845056  0.34788924     0.46800
H972        H  0.20912777  0.59153308  0.42976001     0.42100
H973        H  0.07547274  0.51395808  0.34299147     0.45600
H974        H  0.19690645  0.53917434  0.32444802     0.37100
C975        C  0.40636241  0.58339580  0.08877883    -0.27200
C976        C  0.41094023  0.58712663  0.13091327     0.02400
C977        C  0.43067224  0.57531015  0.14956131     0.30500
C978        C  0.44557403  0.56050790  0.12631331    -0.19000
C979        C  0.44133397  0.55696938  0.08396253    -0.28400
C980        C  0.42113716  0.56848237  0.06544474     0.44600
C981        C  0.39491089  0.60307900  0.15517485     0.05700
O982        O  0.43583441  0.57835651  0.19060179    -0.56900
H983        H  0.46077255  0.55198144  0.14165063     0.18700
O984        O  0.41464581  0.56432632  0.02470491    -0.63600
H985        H  0.39083491  0.59173184  0.07385219     0.17100
C986        C  0.40095467  0.63561962  0.14649327     0.29400
C987        C  0.38615083  0.65030717  0.17015535    -0.24500
C988        C  0.36510559  0.63315092  0.20293266    -0.23800
C989        C  0.35809307  0.60008502  0.21062789     0.40800
C990        C  0.37328763  0.58564967  0.18736912    -0.26200
O991        O  0.42173641  0.65354888  0.11526914    -0.58100
H992        H  0.39167425  0.67552218  0.16329629     0.16500
O993        O  0.33633328  0.58142281  0.24074767    -0.59600
H994        H  0.36775487  0.56042677  0.19417168     0.14900
H995        H  0.42962348  0.58644092  0.01247344     0.46800
H996        H  0.44460106  0.66406154  0.12676318     0.42100
H997        H  0.31381241  0.57556999  0.23068919     0.45600
H998        H  0.45551901  0.60080004  0.19464041     0.37100
C999        C  0.42903004  0.57530954  0.34768400    -0.27200
C1000       C  0.41507009  0.59238613  0.36799571     0.02400
C1001       C  0.41570949  0.59264145  0.41077236     0.30500
C1002       C  0.42956820  0.57587031  0.43214920    -0.19000
C1003       C  0.44359804  0.55871897  0.41184892    -0.28400
C1004       C  0.44316844  0.55880680  0.36894305     0.44600
C1005       C  0.39935251  0.60905996  0.34429249     0.05700
O1006       O  0.40324919  0.60962080  0.43216406    -0.56900
H1007       H  0.42958407  0.57664042  0.46491903     0.18700
O1008       O  0.45675752  0.54308952  0.34713655    -0.63600
H1009       H  0.42856536  0.57426759  0.31492267     0.17100
C1010       C  0.41609256  0.63067184  0.31153182     0.29400
C1011       C  0.40021175  0.64460602  0.28858879    -0.24500
C1012       C  0.36718315  0.63696507  0.29688932    -0.23800
C1013       C  0.35079471  0.61616739  0.33031912     0.40800
C1014       C  0.36678423  0.60252073  0.35355765    -0.26200
O1015       O  0.44844043  0.63920232  0.30248373    -0.58100
H1016       H  0.41378563  0.66133181  0.26391186     0.16500
O1017       O  0.31868213  0.60809049  0.33993799    -0.59600
H1018       H  0.35319261  0.58588148  0.37828720     0.14900
H1019       H  0.43793651  0.52033218  0.34186243     0.46800
H1020       H  0.44723561  0.62786751  0.27645590     0.42100
H1021       H  0.30428045  0.58947048  0.32152847     0.45600
H1022       H  0.42151620  0.63314417  0.43256623     0.37100
C1023       C  0.36709931  0.77254830  0.15119795    -0.27200
C1024       C  0.40131390  0.79506694  0.15727123     0.02400
C1025       C  0.41860671  0.78679581  0.18618449     0.30500
C1026       C  0.40176743  0.75700952  0.20863891    -0.19000
C1027       C  0.36750386  0.73468066  0.20281906    -0.28400
C1028       C  0.35030654  0.74263596  0.17352136     0.44600
C1029       C  0.41855967  0.82722505  0.13387370     0.05700
O1030       O  0.45211070  0.80755588  0.19252335    -0.56900
H1031       H  0.41563371  0.75118852  0.23053704     0.18700
O1032       O  0.31666554  0.72214594  0.16789713    -0.63600
H1033       H  0.35315479  0.77847634  0.12953691     0.17100
C1034       C  0.41940226  0.82749001  0.09120999     0.29400
C1035       C  0.43537229  0.85790279  0.06985419    -0.24500
C1036       C  0.45052078  0.88892354  0.09010637    -0.23800
C1037       C  0.44965559  0.88854661  0.13299896     0.40800
C1038       C  0.43396957  0.85804802  0.15430034    -0.26200
O1039       O  0.40560041  0.79803943  0.07003573    -0.58100
H1040       H  0.43564919  0.85705274  0.03709618     0.16500
O1041       O  0.46350186  0.91776806  0.15462781    -0.59600
H1042       H  0.43343235  0.85850104  0.18707935     0.14900
H1043       H  0.31476278  0.70757659  0.14477525     0.46800
H1044       H  0.38383831  0.79464476  0.06010720     0.42100
H1045       H  0.48654195  0.92270567  0.16099681     0.45600
H1046       H  0.46343019  0.80073659  0.17218507     0.37100
C1047       C  0.40843039  0.77146226  0.34135470    -0.27200
C1048       C  0.39470542  0.79278714  0.34323689     0.02400
C1049       C  0.36512661  0.78379541  0.32118061     0.30500
C1050       C  0.35053307  0.75474784  0.29710570    -0.19000
C1051       C  0.36449883  0.73370564  0.29518351    -0.28400
C1052       C  0.39340868  0.74208696  0.31799726     0.44600
C1053       C  0.41202894  0.82480423  0.36692651     0.05700
O1054       O  0.35016940  0.80316608  0.32309371    -0.56900
H1055       H  0.32807729  0.74847927  0.28009337     0.18700
O1056       O  0.40814758  0.72253082  0.31607853    -0.63600
H1057       H  0.43134991  0.77794700  0.35738846     0.17100
C1058       C  0.42122778  0.82549532  0.40783236     0.29400
C1059       C  0.43727846  0.85590603  0.42925003    -0.24500
C1060       C  0.44534269  0.88644645  0.41048065    -0.23800
C1061       C  0.43673854  0.88572614  0.36924212     0.40800
C1062       C  0.42020153  0.85526755  0.34809423    -0.26200
O1063       O  0.41348558  0.79639787  0.42766436    -0.58100
H1064       H  0.44350827  0.85549042  0.46078101     0.16500
O1065       O  0.44420254  0.91460926  0.34911203    -0.59600
H1066       H  0.41399503  0.85552369  0.31652012     0.14900
H1067       H  0.39876250  0.70692982  0.33924770     0.46800
H1068       H  0.43497325  0.79654222  0.43067291     0.42100
H1069       H  0.42414489  0.91712542  0.35221014     0.45600
H1070       H  0.33383472  0.79366624  0.34556037     0.37100
loop_ 
_geom_bond_atom_site_label_1 
_geom_bond_atom_site_label_2 
_geom_bond_distance 
_geom_bond_site_symmetry_2 
_ccdc_geom_bond_type 
C1            H2   1.110       .  S
C1            C7   1.549       .  S
C1            C6   1.553       .  S
C1            C5   1.552       .  S
C3            H4   1.110       .  S
C3            C9   1.544       .  S
C3            C8   1.550       .  S
C3           C10   1.552       .  S
C5            C8   1.385       .  D
C5          C988   1.508       .  S
C6            C9   1.376       .  D
C6         C1027   1.504       .  S
C7           C10   1.379       .  D
C7          C940   1.504       .  S
C8         C1012   1.508       .  S
C9         C1051   1.497       .  S
C10         C955   1.505       .  S
C11          C12   1.415       .  A
C11          C16   1.401       .  A
C11         C907   1.484       .  S
C12          C13   1.402       .  A
C12         C892   1.485       .  S
C13          C14   1.400       .  A
C13          H18   1.085       .  S
C14          C15   1.417       .  A
C14         C835   1.480       .  S
C15          C16   1.405       .  A
C15         C859   1.490       .  S
C16          H17   1.084       .  S
C19          C20   1.414       .  A
C19          C24   1.398       .  A
C19         C811   1.475       .  S
C20          C21   1.401       .  A
C20         C763   1.480       .  S
C21          C22   1.399       .  A
C21          H26   1.085       .  S
C22          C23   1.410       .  A
C22         C739   1.473       .  S
C23          C24   1.397       .  A
C23         C796   1.474       .  S
C24          H25   1.085       .  S
C27          C28   1.408       .  A
C27          C32   1.397       .  A
C27         C700   1.475       .  S
C28          C29   1.400       .  A
C28         C724   1.478       .  S
C29          C30   1.402       .  A
C29          H34   1.084       .  S
C30          C31   1.419       .  A
C30         C676   1.483       .  S
C31          C32   1.406       .  A
C31         C643   1.486       .  S
C32          H33   1.085       .  S
O35          C51   1.274       .  A
O35         Zn41   2.007       .  S
C36         C820   1.477       .  S
C36          O52   1.274       .  A
C36          O49   1.274       .  A
O37          C50   1.278       .  A
O37         Cd44   2.112       .  S
O38          C56   1.274       .  A
O38         Cd47   2.053   1_554  S
O39          C53   1.278       .  A
O39         Cd43   2.109       .  S
O40          C51   1.275       .  A
O40         Cd43   2.069   1_455  S
Zn41         O52   2.000       .  S
Zn41         O54   2.046   1_556  S
Zn41         O46   1.942   1_455  S
O42          C53   1.276       .  A
O42         Cd47   2.097       .  S
Cd43         O45   2.060   1_556  S
Cd43         O46   2.006       .  S
Cd44         O48   2.073   1_455  S
Cd44         O57   2.081   1_455  S
Cd44         O46   2.012   1_454  S
O45          C55   1.277       .  A
O46         Cd47   2.004       .  S
Cd47         O49   2.060   1_655  S
O48          C55   1.277       .  A
C50         C931   1.509       .  S
C50          O54   1.276       .  A
C51         C916   1.483       .  S
C53         C619   1.500       .  S
C55         C595   1.483       .  S
C56         C667   1.485       .  S
C56          O57   1.278       .  A
O58          C74   1.276       .  A
O58         Zn64   2.017       .  S
C59         C883   1.477       .  S
C59          O75   1.276       .  A
C59          O72   1.273       .  A
O60          C73   1.276       .  A
O60         Cd67   2.093       .  S
O61          C79   1.275       .  A
O61         Cd70   2.049       .  S
O62          C76   1.276       .  A
O62         Cd66   2.096       .  S
O63          C74   1.274       .  A
O63         Cd66   2.051   1_455  S
Zn64         O75   2.023       .  S
Zn64         O77   2.075       .  S
Zn64         O69   1.953       .  S
O65          C76   1.277       .  A
O65         Cd70   2.107       .  S
Cd66         O68   2.060       .  S
Cd66         O69   2.000   1_655  S
Cd67         O71   2.066   1_455  S
Cd67         O80   2.065   1_455  S
Cd67         O69   2.007       .  S
O68          C78   1.274       .  A
O69         Cd70   2.000   1_455  S
Cd70         O72   2.057   1_655  S
O71          C78   1.276       .  A
C73         C964   1.510       .  S
C73          O77   1.280       .  A
C74         C772   1.473       .  S
C76         C580   1.502       .  S
C78         C652   1.484       .  S
C79         C547   1.480       .  S
C79          O80   1.275       .  A
C81          C82   1.409       .  A
C81          C86   1.399       .  A
C81         C556   1.474       .  S
C82          C83   1.395       .  A
C82         C604   1.477       .  S
C83          C84   1.398       .  A
C83          H88   1.085       .  S
C84          C85   1.417       .  A
C84         C532   1.474       .  S
C85          C86   1.404       .  A
C85         C499   1.487       .  S
C86          H87   1.084       .  S
C89          C90   1.411       .  A
C89          C94   1.402       .  A
C89         C451   1.481       .  S
C90          C91   1.398       .  A
C90         C475   1.474       .  S
C91          C92   1.402       .  A
C91          H96   1.085       .  S
C92          C93   1.417       .  A
C92         C403   1.484       .  S
C93          C94   1.404       .  A
C93         C427   1.482       .  S
C94          H95   1.085       .  S
C97          C98   1.414       .  A
C97         C102   1.400       .  A
C97         C331   1.476       .  S
C98          C99   1.401       .  A
C98         C379   1.486       .  S
C99         C100   1.402       .  A
C99         H104   1.085       .  S
C100        C101   1.415       .  A
C100        C355   1.477       .  S
C101        C102   1.400       .  A
C101        C307   1.486       .  S
C102        H103   1.085       .  S
O105        C121   1.276       .  A
O105       Zn111   2.020       .  S
C106        C748   1.474       .  S
C106        O122   1.275       .  A
C106        O119   1.274       .  A
O107        C120   1.277       .  A
O107       Cd114   2.099       .  S
O108        C126   1.276       .  A
O108       Cd117   2.067       .  S
O109        C123   1.277       .  A
O109       Cd113   2.093       .  S
O110        C121   1.273       .  A
O110       Cd113   2.057   1_565  S
Zn111       O122   2.013       .  S
Zn111       O124   2.045       .  S
Zn111       O116   1.950       .  S
O112        C123   1.278       .  A
O112       Cd117   2.105       .  S
Cd113       O115   2.052       .  S
Cd113       O116   1.996   1_545  S
Cd114       O118   2.078   1_565  S
Cd114       O127   2.074   1_565  S
Cd114       O116   2.011       .  S
O115        C125   1.274       .  A
O116       Cd117   2.004   1_565  S
Cd117       O119   2.061   1_545  S
O118        C125   1.277       .  A
C120       C1060   1.503       .  S
C120        O124   1.276       .  A
C121        C340   1.483       .  S
C123        C292   1.507       .  S
C125        C508   1.482       .  S
C126        C460   1.477       .  S
C126        O127   1.276       .  A
O128        C144   1.277       .  A
O128       Zn134   2.015       .  S
C129        C316   1.477       .  S
C129        O145   1.275       .  A
C129        O142   1.275       .  A
O130        C143   1.278       .  A
O130       Cd137   2.106       .  S
O131        C149   1.273       .  A
O131       Cd140   2.045       .  S
O132        C146   1.277       .  A
O132       Cd136   2.105       .  S
O133        C144   1.273       .  A
O133       Cd136   2.055       .  S
Zn134       O145   2.017       .  S
Zn134       O147   2.068       .  S
Zn134       O139   1.954       .  S
O135        C146   1.277       .  A
O135       Cd140   2.104       .  S
Cd136       O138   2.059       .  S
Cd136       O139   2.004       .  S
Cd137       O141   2.078       .  S
Cd137       O150   2.079       .  S
Cd137       O139   2.013       .  S
O138        C148   1.275       .  A
O139       Cd140   2.000       .  S
Cd140       O142   2.062       .  S
O141        C148   1.278       .  A
C143       C1003   1.512       .  S
C143        O147   1.279       .  A
C144        C844   1.481       .  S
C146        C268   1.504       .  S
C148        C436   1.486       .  S
C149        C691   1.484       .  S
C149        O150   1.277       .  A
O151        C167   1.273       .  A
O151       Zn157   1.999       .  S
C152        C388   1.475       .  S
C152        O168   1.276       .  A
C152        O165   1.274       .  A
O153        C166   1.277       .  A
O153       Cd160   2.103       .  S
O154        C172   1.274       .  A
O154       Cd163   2.052   1_554  S
O155        C169   1.275       .  A
O155       Cd159   2.087       .  S
O156        C167   1.273       .  A
O156       Cd159   2.057   1_565  S
Zn157       O168   2.021       .  S
Zn157       O170   2.050   1_556  S
Zn157       O162   1.944       .  S
O158        C169   1.278       .  A
O158       Cd163   2.103       .  S
Cd159       O161   2.053   1_556  S
Cd159       O162   2.003   1_545  S
Cd160       O164   2.071   1_565  S
Cd160       O173   2.067   1_565  S
Cd160       O162   2.007   1_554  S
O161        C171   1.274       .  A
O162       Cd163   2.000   1_565  S
Cd163       O165   2.060   1_545  S
O164        C171   1.276       .  A
C166       C1036   1.508       .  S
C166        O170   1.277       .  A
C167        C787   1.465       .  S
C169        C235   1.502       .  S
C171        C484   1.482       .  S
C172        C523   1.481       .  S
C172        O173   1.276       .  A
O174        C190   1.277       .  A
O174       Zn180   2.027       .  S
C175        C868   1.481       .  S
C175        O191   1.277       .  A
C175        O188   1.274       .  A
O176        C189   1.279       .  A
O176       Cd183   2.105       .  S
O177        C195   1.274       .  A
O177       Cd186   2.056   1_554  S
O178        C192   1.277       .  A
O178       Cd182   2.101       .  S
O179        C190   1.274       .  A
O179       Cd182   2.060       .  S
Zn180       O191   2.032       .  S
Zn180       O193   2.060   1_556  S
Zn180       O185   1.959       .  S
O181        C192   1.277       .  A
O181       Cd186   2.099       .  S
Cd182       O184   2.062   1_556  S
Cd182       O185   2.004       .  S
Cd183       O187   2.086       .  S
Cd183       O196   2.087       .  S
Cd183       O185   2.016   1_554  S
O184        C194   1.276       .  A
O185       Cd186   2.002       .  S
Cd186       O188   2.057       .  S
O187        C194   1.278       .  A
C189        C979   1.508       .  S
C189        O193   1.278       .  A
C190        C364   1.480       .  S
C192        C211   1.504       .  S
C194        C715   1.485       .  S
C195        C412   1.486       .  S
C195        O196   1.278       .  A
C197        H198   1.111       .  S
C197        C203   1.547       .  S
C197        C202   1.552       .  S
C197        C201   1.556       .  S
C199        H200   1.110       .  S
C199        C205   1.550       .  S
C199        C204   1.547       .  S
C199        C206   1.547       .  S
C201        C204   1.381       .  D
C201        C259   1.502       .  S
C202        C205   1.384       .  D
C202        C283   1.514       .  S
C203        C206   1.374       .  D
C203        C571   1.497       .  S
C204        C220   1.508       .  S
C205        C244   1.502       .  S
C206        C628   1.498       .  S
C207        C208   1.406       .  A
C207        C212   1.409       .  A
C207        H217   1.084       .  S
C208        C209   1.410       .  A
C208        C213   1.501       .  S
C209        C210   1.410       .  A
C209        O214   1.372       .  S
C210        C211   1.409       .  A
C210        H215   1.083       .  S
C211        C212   1.415       .  A
C212        O216   1.371       .  S
C213        C218   1.410       .  A
C213        C222   1.407       .  A
O214        H230   0.992       .  S
O216        H227   0.991       .  S
C218        C219   1.408       .  A
C218        O223   1.372       .  S
C219        C220   1.407       .  A
C219        H224   1.081       .  S
C220        C221   1.413       .  A
C221        C222   1.410       .  A
C221        O225   1.371       .  S
C222        H226   1.083       .  S
O223        H228   0.992       .  S
O225        H229   0.991       .  S
C231        C232   1.406       .  A
C231        C236   1.406       .  A
C231        H241   1.083       .  S
C232        C233   1.410       .  A
C232        C237   1.500       .  S
C233        C234   1.407       .  A
C233        O238   1.371       .  S
C234        C235   1.411       .  A
C234        H239   1.083       .  S
C235        C236   1.414       .  A
C236        O240   1.371       .  S
C237        C242   1.411       .  A
C237        C246   1.408       .  A
O238        H254   0.992       .  S
O240        H251   0.991       .  S
C242        C243   1.406       .  A
C242        O247   1.372       .  S
C243        C244   1.403       .  A
C243        H248   1.081       .  S
C244        C245   1.414       .  A
C245        C246   1.407       .  A
C245        O249   1.372       .  S
C246        H250   1.083       .  S
O247        H252   0.992       .  S
O249        H253   0.991       .  S
C255        C256   1.408       .  A
C255        C260   1.406       .  A
C255        H265   1.083       .  S
C256        C257   1.417       .  A
C256        C261   1.511       .  S
C257        C258   1.413       .  A
C257        O262   1.372       .  S
C258        C259   1.405       .  A
C258        H263   1.084       .  S
C259        C260   1.407       .  A
C260        O264   1.369       .  S
C261        C266   1.414       .  A
C261        C270   1.410       .  A
O262        H278   0.993       .  S
O264        H275   0.993       .  S
C266        C267   1.410       .  A
C266        O271   1.371       .  S
C267        C268   1.409       .  A
C267        H272   1.083       .  S
C268        C269   1.414       .  A
C269        C270   1.409       .  A
C269        O273   1.371       .  S
C270        H274   1.083       .  S
O271        H276   0.991       .  S
O273        H277   0.991       .  S
C279        C280   1.408       .  A
C279        C284   1.412       .  A
C279        H289   1.083       .  S
C280        C281   1.412       .  A
C280        C285   1.508       .  S
C281        C282   1.407       .  A
C281        O286   1.371       .  S
C282        C283   1.405       .  A
C282        H287   1.076       .  S
C283        C284   1.415       .  A
C284        O288   1.374       .  S
C285        C290   1.413       .  A
C285        C294   1.408       .  A
O286        H302   0.992       .  S
O288        H299   0.992       .  S
C290        C291   1.408       .  A
C290        O295   1.371       .  S
C291        C292   1.410       .  A
C291        H296   1.083       .  S
C292        C293   1.416       .  A
C293        C294   1.409       .  A
C293        O297   1.371       .  S
C294        H298   1.083       .  S
O295        H300   0.991       .  S
O297        H301   0.992       .  S
C303        C304   1.406       .  A
C303        C308   1.401       .  A
C303        H313   1.083       .  S
C304        C305   1.409       .  A
C304        C309   1.483       .  S
C305        C306   1.394       .  A
C305        O310   1.372       .  S
C306        C307   1.405       .  A
C306        H311   1.084       .  S
C307        C308   1.408       .  A
C308        O312   1.371       .  S
C309        C314   1.407       .  A
C309        C318   1.405       .  A
O310        H326   0.992       .  S
O312        H323   0.991       .  S
C314        C315   1.400       .  A
C314        O319   1.372       .  S
C315        C316   1.405       .  A
C315        H320   1.084       .  S
C316        C317   1.409       .  A
C317        C318   1.397       .  A
C317        O321   1.372       .  S
C318        H322   1.084       .  S
O319        H324   0.992       .  S
O321        H325   0.991       .  S
C327        C328   1.403       .  A
C327        C332   1.394       .  A
C327        H337   1.083       .  S
C328        C329   1.413       .  A
C328        C333   1.484       .  S
C329        C330   1.399       .  A
C329        O334   1.371       .  S
C330        C331   1.399       .  A
C330        H335   1.084       .  S
C331        C332   1.408       .  A
C332        O336   1.371       .  S
C333        C338   1.411       .  A
C333        C342   1.402       .  A
O334        H350   0.992       .  S
O336        H347   0.991       .  S
C338        C339   1.399       .  A
C338        O343   1.373       .  S
C339        C340   1.405       .  A
C339        H344   1.083       .  S
C340        C341   1.414       .  A
C341        C342   1.397       .  A
C341        O345   1.371       .  S
C342        H346   1.083       .  S
O343        H348   0.992       .  S
O345        H349   0.991   1_565  S
C351        C352   1.400       .  A
C351        C356   1.393       .  A
C351        H361   1.084       .  S
C352        C353   1.409       .  A
C352        C357   1.476       .  S
C353        C354   1.401       .  A
C353        O358   1.371       .  S
C354        C355   1.402       .  A
C354        H359   1.084       .  S
C355        C356   1.409       .  A
C356        O360   1.372       .  S
C357        C362   1.408       .  A
C357        C366   1.400       .  A
O358        H374   0.992       .  S
O360        H371   0.992       .  S
C362        C363   1.398       .  A
C362        O367   1.373       .  S
C363        C364   1.404       .  A
C363        H368   1.084       .  S
C364        C365   1.413       .  A
C365        C366   1.400       .  A
C365        O369   1.372       .  S
C366        H370   1.084       .  S
O367        H372   0.992       .  S
O369        H373   0.992       .  S
C375        C376   1.401       .  A
C375        C380   1.394       .  A
C375        H385   1.084       .  S
C376        C377   1.408       .  A
C376        C381   1.478       .  S
C377        C378   1.402       .  A
C377        O382   1.372       .  S
C378        C379   1.406       .  A
C378        H383   1.083       .  S
C379        C380   1.411       .  A
C380        O384   1.373       .  S
C381        C386   1.409       .  A
C381        C390   1.401       .  A
O382        H398   0.992       .  S
O384        H395   0.990       .  S
C386        C387   1.398       .  A
C386        O391   1.373       .  S
C387        C388   1.402       .  A
C387        H392   1.084       .  S
C388        C389   1.411       .  A
C389        C390   1.401       .  A
C389        O393   1.372       .  S
C390        H394   1.083       .  S
O391        H396   0.992       .  S
O393        H397   0.992       .  S
C399        C400   1.402       .  A
C399        C404   1.403       .  A
C399        H409   1.083       .  S
C400        C401   1.404       .  A
C400        C405   1.473       .  S
C401        C402   1.395       .  A
C401        O406   1.372       .  S
C402        C403   1.405       .  A
C402        H407   1.084       .  S
C403        C404   1.410       .  A
C404        O408   1.371       .  S
C405        C410   1.403       .  A
C405        C414   1.400       .  A
O406        H422   0.992       .  S
O408        H419   0.991       .  S
C410        C411   1.399       .  A
C410        O415   1.372       .  S
C411        C412   1.409       .  A
C411        H416   1.083       .  S
C412        C413   1.413       .  A
C413        C414   1.401       .  A
C413        O417   1.371       .  S
C414        H418   1.084       .  S
O415        H420   0.991       .  S
O417        H421   0.992       .  S
C423        C424   1.405       .  A
C423        C428   1.401       .  A
C423        H433   1.084       .  S
C424        C425   1.406       .  A
C424        C429   1.478       .  S
C425        C426   1.395       .  A
C425        O430   1.372       .  S
C426        C427   1.403       .  A
C426        H431   1.083       .  S
C427        C428   1.407       .  A
C428        O432   1.372       .  S
C429        C434   1.407       .  A
C429        C438   1.400       .  A
O430        H446   0.992       .  S
O432        H443   0.992       .  S
C434        C435   1.400       .  A
C434        O439   1.372       .  S
C435        C436   1.408       .  A
C435        H440   1.083       .  S
C436        C437   1.415       .  A
C437        C438   1.396       .  A
C437        O441   1.372       .  S
C438        H442   1.084       .  S
O439        H444   0.990       .  S
O441        H445   0.993       .  S
C447        C448   1.405       .  A
C447        C452   1.402       .  A
C447        H457   1.083       .  S
C448        C449   1.408       .  A
C448        C453   1.479       .  S
C449        C450   1.396       .  A
C449        O454   1.372       .  S
C450        C451   1.402       .  A
C450        H455   1.084       .  S
C451        C452   1.408       .  A
C452        O456   1.371       .  S
C453        C458   1.407       .  A
C453        C462   1.404       .  A
O454        H470   0.992       .  S
O456        H467   0.991       .  S
C458        C459   1.399       .  A
C458        O463   1.372       .  S
C459        C460   1.405       .  A
C459        H464   1.084       .  S
C460        C461   1.410       .  A
C461        C462   1.400       .  A
C461        O465   1.372       .  S
C462        H466   1.084       .  S
O463        H468   0.991       .  S
O465        H469   0.992       .  S
C471        C472   1.399       .  A
C471        C476   1.393       .  A
C471        H481   1.084       .  S
C472        C473   1.407       .  A
C472        C477   1.469       .  S
C473        C474   1.402       .  A
C473        O478   1.371       .  S
C474        C475   1.402       .  A
C474        H479   1.083       .  S
C475        C476   1.407       .  A
C476        O480   1.372       .  S
C477        C482   1.403       .  A
C477        C486   1.399       .  A
O478        H494   0.992       .  S
O480        H491   0.991       .  S
C482        C483   1.396       .  A
C482        O487   1.372       .  S
C483        C484   1.408       .  A
C483        H488   1.083       .  S
C484        C485   1.414       .  A
C485        C486   1.399       .  A
C485        O489   1.372       .  S
C486        H490   1.084       .  S
O487        H492   0.992       .  S
O489        H493   0.992       .  S
C495        C496   1.401       .  A
C495        C500   1.401       .  A
C495        H505   1.083       .  S
C496        C497   1.404       .  A
C496        C501   1.469       .  S
C497        C498   1.392       .  A
C497        O502   1.372       .  S
C498        C499   1.406       .  A
C498        H503   1.083       .  S
C499        C500   1.412       .  A
C500        O504   1.371       .  S
C501        C506   1.406       .  A
C501        C510   1.396       .  A
O502        H518   0.993       .  S
O504        H515   0.991       .  S
C506        C507   1.401       .  A
C506        O511   1.372       .  S
C507        C508   1.408       .  A
C507        H512   1.083       .  S
C508        C509   1.415       .  A
C509        C510   1.394       .  A
C509        O513   1.371       .  S
C510        H514   1.084       .  S
O511        H516   0.992       .  S
O513        H517   0.993       .  S
C519        C520   1.399       .  A
C519        C524   1.395       .  A
C519        H529   1.084       .  S
C520        C521   1.405       .  A
C520        C525   1.470       .  S
C521        C522   1.397       .  A
C521        O526   1.372       .  S
C522        C523   1.407       .  A
C522        H527   1.083       .  S
C523        C524   1.415       .  A
C524        O528   1.372       .  S
C525        C530   1.407       .  A
C525        C534   1.400       .  A
O526        H542   0.991       .  S
O528        H539   0.993       .  S
C530        C531   1.397       .  A
C530        O535   1.372       .  S
C531        C532   1.402       .  A
C531        H536   1.084       .  S
C532        C533   1.408       .  A
C533        C534   1.393       .  A
C533        O537   1.372       .  S
C534        H538   1.084       .  S
O535        H540   0.991       .  S
O537        H541   0.992       .  S
C543        C544   1.402       .  A
C543        C548   1.400       .  A
C543        H553   1.084       .  S
C544        C545   1.404       .  A
C544        C549   1.473       .  S
C545        C546   1.391       .  A
C545        O550   1.372       .  S
C546        C547   1.406       .  A
C546        H551   1.083       .  S
C547        C548   1.414       .  A
C548        O552   1.372       .  S
C549        C554   1.406       .  A
C549        C558   1.405       .  A
O550        H566   0.992       .  S
O552        H563   0.992       .  S
C554        C555   1.393       .  A
C554        O559   1.372       .  S
C555        C556   1.403       .  A
C555        H560   1.083       .  S
C556        C557   1.403       .  A
C557        C558   1.397       .  A
C557        O561   1.371       .  S
C558        H562   1.083       .  S
O559        H564   0.992       .  S
O561        H565   0.991       .  S
C567        C568   1.412       .  A
C567        C572   1.410       .  A
C567        H577   1.083       .  S
C568        C569   1.416       .  A
C568        C573   1.511       .  S
C569        C570   1.406       .  A
C569        O574   1.371       .  S
C570        C571   1.402       .  A
C570        H575   1.083       .  S
C571        C572   1.408       .  A
C572        O576   1.371       .  S
C573        C578   1.416       .  A
C573        C582   1.408       .  A
O574        H590   0.992       .  S
O576        H587   0.992       .  S
C578        C579   1.411       .  A
C578        O583   1.371       .  S
C579        C580   1.408       .  A
C579        H584   1.083       .  S
C580        C581   1.413       .  A
C581        C582   1.407       .  A
C581        O585   1.371       .  S
C582        H586   1.083       .  S
O583        H588   0.992       .  S
O585        H589   0.992       .  S
C591        C592   1.401       .  A
C591        C596   1.401       .  A
C591        H601   1.084       .  S
C592        C593   1.404       .  A
C592        C597   1.473       .  S
C593        C594   1.393       .  A
C593        O598   1.372       .  S
C594        C595   1.407       .  A
C594        H599   1.083       .  S
C595        C596   1.415       .  A
C596        O600   1.371       .  S
C597        C602   1.407       .  A
C597        C606   1.401       .  A
O598        H614   0.991       .  S
O600        H611   0.991       .  S
C602        C603   1.399       .  A
C602        O607   1.371       .  S
C603        C604   1.403       .  A
C603        H608   1.084       .  S
C604        C605   1.408       .  A
C605        C606   1.394       .  A
C605        O609   1.372       .  S
C606        H610   1.084       .  S
O607        H612   0.993       .  S
O609        H613   0.991       .  S
C615        C616   1.409       .  A
C615        C620   1.409       .  A
C615        H625   1.083       .  S
C616        C617   1.414       .  A
C616        C621   1.507       .  S
C617        C618   1.411       .  A
C617        O622   1.373       .  S
C618        C619   1.407       .  A
C618        H623   1.083       .  S
C619        C620   1.412       .  A
C620        O624   1.371       .  S
C621        C626   1.415       .  A
C621        C630   1.410       .  A
O622        H638   0.990       .  S
O624        H635   0.991       .  S
C626        C627   1.407       .  A
C626        O631   1.371       .  S
C627        C628   1.403       .  A
C627        H632   1.082       .  S
C628        C629   1.408       .  A
C629        C630   1.408       .  A
C629        O633   1.370       .  S
C630        H634   1.083       .  S
O631        H636   0.991       .  S
O633        H637   0.992       .  S
C639        C640   1.403       .  A
C639        C644   1.403       .  A
C639        H649   1.083       .  S
C640        C641   1.404       .  A
C640        C645   1.472       .  S
C641        C642   1.391       .  A
C641        O646   1.372       .  S
C642        C643   1.405       .  A
C642        H647   1.084       .  S
C643        C644   1.411       .  A
C644        O648   1.371       .  S
C645        C650   1.404       .  A
C645        C654   1.400       .  A
O646        H662   0.992       .  S
O648        H659   0.991       .  S
C650        C651   1.398       .  A
C650        O655   1.372       .  S
C651        C652   1.409       .  A
C651        H656   1.083       .  S
C652        C653   1.415       .  A
C653        C654   1.397       .  A
C653        O657   1.372       .  S
C654        H658   1.084       .  S
O655        H660   0.991       .  S
O657        H661   0.992       .  S
C663        C664   1.403       .  A
C663        C668   1.399       .  A
C663        H673   1.084       .  S
C664        C665   1.406       .  A
C664        C669   1.479       .  S
C665        C666   1.398       .  A
C665        O670   1.372       .  S
C666        C667   1.409       .  A
C666        H671   1.083       .  S
C667        C668   1.412       .  A
C668        O672   1.371       .  S
C669        C674   1.407       .  A
C669        C678   1.405       .  A
O670        H686   0.992       .  S
O672        H683   0.992       .  S
C674        C675   1.393       .  A
C674        O679   1.372       .  S
C675        C676   1.402       .  A
C675        H680   1.083       .  S
C676        C677   1.410       .  A
C677        C678   1.404       .  A
C677        O681   1.372       .  S
C678        H682   1.084       .  S
O679        H684   0.991       .  S
O681        H685   0.992       .  S
C687        C688   1.398       .  A
C687        C692   1.395       .  A
C687        H697   1.084       .  S
C688        C689   1.407       .  A
C688        C693   1.474       .  S
C689        C690   1.400       .  A
C689        O694   1.372       .  S
C690        C691   1.407       .  A
C690        H695   1.083       .  S
C691        C692   1.416       .  A
C692        O696   1.372       .  S
C693        C698   1.410       .  A
C693        C702   1.400       .  A
O694        H710   0.990       .  S
O696        H707   0.993       .  S
C698        C699   1.402       .  A
C698        O703   1.372       .  S
C699        C700   1.401       .  A
C699        H704   1.083       .  S
C700        C701   1.407       .  A
C701        C702   1.394       .  A
C701        O705   1.372       .  S
C702        H706   1.084       .  S
O703        H708   0.992       .  S
O705        H709   0.992       .  S
C711        C712   1.403       .  A
C711        C716   1.404       .  A
C711        H721   1.084       .  S
C712        C713   1.406       .  A
C712        C717   1.479       .  S
C713        C714   1.394       .  A
C713        O718   1.372       .  S
C714        C715   1.406       .  A
C714        H719   1.083       .  S
C715        C716   1.414       .  A
C716        O720   1.372       .  S
C717        C722   1.409       .  A
C717        C726   1.402       .  A
O718        H734   0.991       .  S
O720        H731   0.992       .  S
C722        C723   1.403       .  A
C722        O727   1.371       .  S
C723        C724   1.403       .  A
C723        H728   1.083       .  S
C724        C725   1.406       .  A
C725        C726   1.394       .  A
C725        O729   1.372       .  S
C726        H730   1.084       .  S
O727        H732   0.992       .  S
O729        H733   0.993       .  S
C735        C736   1.405       .  A
C735        C740   1.402       .  A
C735        H745   1.083       .  S
C736        C737   1.407       .  A
C736        C741   1.476       .  S
C737        C738   1.392       .  A
C737        O742   1.373       .  S
C738        C739   1.399       .  A
C738        H743   1.082       .  S
C739        C740   1.406       .  A
C740        O744   1.371       .  S
C741        C746   1.408       .  A
C741        C750   1.401       .  A
O742        H758   0.992       .  S
O744        H755   0.992       .  S
C746        C747   1.395       .  A
C746        O751   1.372       .  S
C747        C748   1.403       .  A
C747        H752   1.084       .  S
C748        C749   1.411       .  A
C749        C750   1.400       .  A
C749        O753   1.372       .  S
C750        H754   1.084       .  S
O751        H756   0.991       .  S
O753        H757   0.992       .  S
C759        C760   1.401       .  A
C759        C764   1.391       .  A
C759        H769   1.084       .  S
C760        C761   1.408       .  A
C760        C765   1.475       .  S
C761        C762   1.400       .  A
C761        O766   1.372       .  S
C762        C763   1.404       .  A
C762        H767   1.083       .  S
C763        C764   1.410       .  A
C764        O768   1.373       .  S
C765        C770   1.406       .  A
C765        C774   1.404       .  A
O766        H782   0.993       .  S
O768        H779   0.992       .  S
C770        C771   1.397       .  A
C770        O775   1.371       .  S
C771        C772   1.405       .  A
C771        H776   1.084       .  S
C772        C773   1.408       .  A
C773        C774   1.395       .  A
C773        O777   1.372       .  S
C774        H778   1.084       .  S
O775        H780   0.992       .  S
O777        H781   0.992       .  S
C783        C784   1.405       .  A
C783        C788   1.398       .  A
C783        H793   1.083       .  S
C784        C785   1.410       .  A
C784        C789   1.480       .  S
C785        C786   1.394       .  A
C785        O790   1.372       .  S
C786        C787   1.401       .  A
C786        H791   1.084       .  S
C787        C788   1.406       .  A
C788        O792   1.372       .  S
C789        C794   1.411       .  A
C789        C798   1.404       .  A
O790        H806   0.990       .  S
O792        H803   0.991       .  S
C794        C795   1.398       .  A
C794        O799   1.372       .  S
C795        C796   1.400       .  A
C795        H800   1.083       .  S
C796        C797   1.406       .  A
C797        C798   1.395       .  A
C797        O801   1.373       .  S
C798        H802   1.083       .  S
O799        H804   0.992       .  S
O801        H805   0.991       .  S
C807        C808   1.402       .  A
C807        C812   1.394       .  A
C807        H817   1.084       .  S
C808        C809   1.406       .  A
C808        C813   1.470       .  S
C809        C810   1.398       .  A
C809        O814   1.372       .  S
C810        C811   1.401       .  A
C810        H815   1.084       .  S
C811        C812   1.409       .  A
C812        O816   1.371       .  S
C813        C818   1.405       .  A
C813        C822   1.399       .  A
O814        H830   0.992       .  S
O816        H827   0.992       .  S
C818        C819   1.398       .  A
C818        O823   1.371       .  S
C819        C820   1.408       .  A
C819        H824   1.083       .  S
C820        C821   1.412       .  A
C821        C822   1.393       .  A
C821        O825   1.372       .  S
C822        H826   1.084       .  S
O823        H828   0.992       .  S
O825        H829   0.992       .  S
C831        C832   1.400       .  A
C831        C836   1.394       .  A
C831        H841   1.083       .  S
C832        C833   1.410       .  A
C832        C837   1.478       .  S
C833        C834   1.401       .  A
C833        O838   1.372       .  S
C834        C835   1.404       .  A
C834        H839   1.084       .  S
C835        C836   1.408       .  A
C836        O840   1.374       .  S
C837        C842   1.408       .  A
C837        C846   1.402       .  A
O838        H854   0.992       .  S
O840        H851   0.992       .  S
C842        C843   1.394       .  A
C842        O847   1.373       .  S
C843        C844   1.404       .  A
C843        H848   1.083       .  S
C844        C845   1.415       .  A
C845        C846   1.400       .  A
C845        O849   1.372       .  S
C846        H850   1.084       .  S
O847        H852   0.990       .  S
O849        H853   0.992       .  S
C855        C856   1.406       .  A
C855        C860   1.403       .  A
C855        H865   1.083       .  S
C856        C857   1.406       .  A
C856        C861   1.482       .  S
C857        C858   1.392       .  A
C857        O862   1.372       .  S
C858        C859   1.405       .  A
C858        H863   1.083       .  S
C859        C860   1.412       .  A
C860        O864   1.372       .  S
C861        C866   1.406       .  A
C861        C870   1.406       .  A
O862        H878   0.992       .  S
O864        H875   0.991       .  S
C866        C867   1.399       .  A
C866        O871   1.372       .  S
C867        C868   1.407       .  A
C867        H872   1.083       .  S
C868        C869   1.409       .  A
C869        C870   1.399       .  A
C869        O873   1.372       .  S
C870        H874   1.084       .  S
O871        H876   0.991       .  S
O873        H877   0.992       .  S
C879        C880   1.402       .  A
C879        C884   1.399       .  A
C879        H889   1.083       .  S
C880        C881   1.411       .  A
C880        C885   1.480       .  S
C881        C882   1.396       .  A
C881        O886   1.372       .  S
C882        C883   1.403       .  A
C882        H887   1.084       .  S
C883        C884   1.411       .  A
C884        O888   1.372       .  S
C885        C890   1.410       .  A
C885        C894   1.401       .  A
O886        H902   0.992       .  S
O888        H899   0.992   1_455  S
C890        C891   1.401       .  A
C890        O895   1.371       .  S
C891        C892   1.405       .  A
C891        H896   1.084       .  S
C892        C893   1.411       .  A
C893        C894   1.392       .  A
C893        O897   1.372       .  S
C894        H898   1.084       .  S
O895        H900   0.992       .  S
O897        H901   0.991       .  S
C903        C904   1.404       .  A
C903        C908   1.400       .  A
C903        H913   1.083       .  S
C904        C905   1.408       .  A
C904        C909   1.479       .  S
C905        C906   1.396       .  A
C905        O910   1.372       .  S
C906        C907   1.405       .  A
C906        H911   1.083       .  S
C907        C908   1.407       .  A
C908        O912   1.371       .  S
C909        C914   1.406       .  A
C909        C918   1.401       .  A
O910        H926   0.991       .  S
O912        H923   0.991       .  S
C914        C915   1.401       .  A
C914        O919   1.372       .  S
C915        C916   1.408       .  A
C915        H920   1.083       .  S
C916        C917   1.413       .  A
C917        C918   1.396       .  A
C917        O921   1.372       .  S
C918        H922   1.084       .  S
O919        H924   0.991       .  S
O921        H925   0.991       .  S
C927        C928   1.408       .  A
C927        C932   1.410       .  A
C927        H937   1.083       .  S
C928        C929   1.411       .  A
C928        C933   1.506       .  S
C929        C930   1.409       .  A
C929        O934   1.371       .  S
C930        C931   1.412       .  A
C930        H935   1.083       .  S
C931        C932   1.416       .  A
C932        O936   1.371       .  S
C933        C938   1.412       .  A
C933        C942   1.409       .  A
O934        H950   0.991       .  S
O936        H947   0.991       .  S
C938        C939   1.408       .  A
C938        O943   1.372       .  S
C939        C940   1.406       .  A
C939        H944   1.083       .  S
C940        C941   1.411       .  A
C941        C942   1.411       .  A
C941        O945   1.371       .  S
C942        H946   1.083       .  S
O943        H948   0.991       .  S
O945        H949   0.991       .  S
C951        C952   1.408       .  A
C951        C956   1.409       .  A
C951        H961   1.083       .  S
C952        C953   1.414       .  A
C952        C957   1.508       .  S
C953        C954   1.411       .  A
C953        O958   1.371       .  S
C954        C955   1.408       .  A
C954        H959   1.084       .  S
C955        C956   1.408       .  A
C956        O960   1.371       .  S
C957        C962   1.412       .  A
C957        C966   1.407       .  A
O958        H974   0.992       .  S
O960        H971   0.993       .  S
C962        C963   1.409       .  A
C962        O967   1.371       .  S
C963        C964   1.409       .  A
C963        H968   1.083       .  S
C964        C965   1.420       .  A
C965        C966   1.412       .  A
C965        O969   1.372       .  S
C966        H970   1.084       .  S
O967        H972   0.991       .  S
O969        H973   0.992       .  S
C975        C976   1.406       .  A
C975        C980   1.410       .  A
C975        H985   1.083       .  S
C976        C977   1.411       .  A
C976        C981   1.503       .  S
C977        C978   1.409       .  A
C977        O982   1.372       .  S
C978        C979   1.411       .  A
C978        H983   1.083       .  S
C979        C980   1.417       .  A
C980        O984   1.371       .  S
C981        C986   1.413       .  A
C981        C990   1.406       .  A
O982        H998   0.991       .  S
O984        H995   0.991       .  S
C986        C987   1.409       .  A
C986        O991   1.371       .  S
C987        C988   1.407       .  A
C987        H992   1.083       .  S
C988        C989   1.416       .  A
C989        C990   1.407       .  A
C989        O993   1.372       .  S
C990        H994   1.083       .  S
O991        H996   0.992       .  S
O993        H997   0.991       .  S
C999       C1000   1.407       .  A
C999       C1004   1.409       .  A
C999       H1009   1.083       .  S
C1000      C1001   1.413       .  A
C1000      C1005   1.509       .  S
C1001      C1002   1.411       .  A
C1001      O1006   1.372       .  S
C1002      C1003   1.412       .  A
C1002      H1007   1.083       .  S
C1003      C1004   1.418       .  A
C1004      O1008   1.371       .  S
C1005      C1010   1.414       .  A
C1005      C1014   1.409       .  A
O1006      H1022   0.991       .  S
O1008      H1019   0.991       .  S
C1010      C1011   1.409       .  A
C1010      O1015   1.372       .  S
C1011      C1012   1.408       .  A
C1011      H1016   1.083       .  S
C1012      C1013   1.412       .  A
C1013      C1014   1.409       .  A
C1013      O1017   1.371       .  S
C1014      H1018   1.083       .  S
O1015      H1020   0.993       .  S
O1017      H1021   0.992       .  S
C1023      C1024   1.408       .  A
C1023      C1028   1.410       .  A
C1023      H1033   1.083       .  S
C1024      C1025   1.412       .  A
C1024      C1029   1.504       .  S
C1025      C1026   1.409       .  A
C1025      O1030   1.371       .  S
C1026      C1027   1.407       .  A
C1026      H1031   1.083       .  S
C1027      C1028   1.409       .  A
C1028      O1032   1.371       .  S
C1029      C1034   1.410       .  A
C1029      C1038   1.407       .  A
O1030      H1046   0.991       .  S
O1032      H1043   0.991       .  S
C1034      C1035   1.409       .  A
C1034      O1039   1.372       .  S
C1035      C1036   1.411       .  A
C1035      H1040   1.083       .  S
C1036      C1037   1.417       .  A
C1037      C1038   1.410       .  A
C1037      O1041   1.371       .  S
C1038      H1042   1.083       .  S
O1039      H1044   0.991       .  S
O1041      H1045   0.991       .  S
C1047      C1048   1.407       .  A
C1047      C1052   1.407       .  A
C1047      H1057   1.083       .  S
C1048      C1049   1.415       .  A
C1048      C1053   1.504       .  S
C1049      C1050   1.409       .  A
C1049      O1054   1.371       .  S
C1050      C1051   1.404       .  A
C1050      H1055   1.083       .  S
C1051      C1052   1.408       .  A
C1052      O1056   1.371       .  S
C1053      C1058   1.412       .  A
C1053      C1062   1.406       .  A
O1054      H1070   0.991       .  S
O1056      H1067   0.991       .  S
C1058      C1059   1.409       .  A
C1058      O1063   1.372       .  S
C1059      C1060   1.410       .  A
C1059      H1064   1.083       .  S
C1060      C1061   1.415       .  A
C1061      C1062   1.407       .  A
C1061      O1065   1.371       .  S
C1062      H1066   1.083       .  S
O1063      H1068   0.991       .  S
O1065      H1069   0.991       .  S
