geometry optimzed in LAMMPS
_audit_creation_date              2020-11-30 
_audit_creation_method            'lammps2cif' 
_symmetry_space_group_name_H-M    'P1' 
_symmetry_Int_Tables_number       1 
_symmetry_cell_setting            triclinic 
loop_ 
_symmetry_equiv_pos_as_xyz 
  x,y,z 
_cell_length_a                    45.22534889 
_cell_length_b                    44.645232449917856 
_cell_length_c                    36.30251136509275 
_cell_angle_alpha                 89.99895582048704 
_cell_angle_beta                  90.13192634395604 
_cell_angle_gamma                 119.88194828208407 
loop_ 
_atom_site_label 
_atom_site_type_symbol 
_atom_site_fract_x 
_atom_site_fract_y 
_atom_site_fract_z 
_atom_site_charge 
C1          C  0.32599732  0.66296941  0.21392688     0.46500
H2          H  0.32531332  0.66288783  0.18340085    -0.02500
C3          C  0.32815571  0.66424160  0.28520072     0.46600
H4          H  0.32932546  0.66528683  0.31567903    -0.02500
C5          C  0.34414078  0.70057339  0.22998350    -0.16200
C6          C  0.28974002  0.64346917  0.23180700    -0.16000
C7          C  0.34562913  0.64534864  0.22984139    -0.16300
C8          C  0.34565979  0.70109538  0.26817817    -0.16300
C9          C  0.29101091  0.64454779  0.27006160    -0.15900
C10         C  0.34652262  0.64596158  0.26808056    -0.16200
N11         N  0.20507031  0.30836612  0.76368498    -0.35600
N12         N  0.17084220  0.32608222  0.70852384    -0.56100
N13         N  0.11868367  0.31030660  0.76422669    -0.35500
N14         N  0.15101727  0.28849539  0.81913694    -0.56100
C15         C  0.22608588  0.31453440  0.73487528     0.28000
C16         C  0.21532180  0.29537606  0.79110945     0.28000
C17         C  0.10403792  0.31503183  0.73407060     0.28000
C18         C  0.09477713  0.29733821  0.79084376     0.28000
C19         C  0.20223913  0.34134223  0.69340631     0.36600
C20         C  0.15454632  0.34127442  0.69298714     0.36700
C21         C  0.17689773  0.29254365  0.84112383     0.36600
C22         C  0.12948501  0.29301528  0.84116459     0.36700
C23         C  0.24929018  0.30390140  0.74339034    -0.20800
C24         C  0.24258672  0.29193486  0.77905754    -0.20800
C25         C  0.07002205  0.30391023  0.74116309    -0.20800
C26         C  0.06420977  0.29289354  0.77713444    -0.20800
C27         C  0.20514444  0.36483862  0.66665165    -0.21900
C28         C  0.17478516  0.36467224  0.66628816    -0.21900
C29         C  0.17030677  0.29656884  0.87748971    -0.21900
C30         C  0.14004981  0.29663247  0.87756197    -0.21900
C31         C  0.22881748  0.33551600  0.70464781    -0.17200
C32         C  0.20867120  0.29820556  0.82832873    -0.17200
C33         C  0.10217595  0.29706607  0.82848149    -0.17200
C34         C  0.12211481  0.33523976  0.70352487    -0.17200
H35         H  0.27056779  0.30719040  0.72681551     0.15700
H36         H  0.25803868  0.28463645  0.79536797     0.15700
H37         H  0.05194822  0.30582318  0.72312320     0.15700
H38         H  0.04074271  0.28464961  0.79206686     0.15700
H39         H  0.22717784  0.38131245  0.65001919     0.14000
H40         H  0.16879852  0.38088185  0.64930671     0.14000
H41         H  0.18671145  0.30117777  0.90109243     0.14000
H42         H  0.12832345  0.30104708  0.90133939     0.14000
H43         H  0.19021639  0.31994068  0.76768074     0.27200
H44         H  0.14489972  0.32239771  0.76895235     0.27200
N45         N  0.10749610  0.78661099  0.73272602    -0.35600
N46         N  0.16478907  0.82506019  0.78215173    -0.56100
N47         N  0.20057734  0.87870572  0.72890865    -0.35500
N48         N  0.14201204  0.84274278  0.68114457    -0.56100
C49         C  0.10634097  0.76151221  0.75460979     0.28000
C50         C  0.09296767  0.77145118  0.70030768     0.28000
C51         C  0.22622435  0.88368643  0.75187201     0.28000
C52         C  0.21470587  0.89079807  0.69554488     0.28000
C53         C  0.14417743  0.79859685  0.80416822     0.36600
C54         C  0.19103155  0.84736441  0.80333913     0.36700
C55         C  0.11178094  0.82463701  0.66384712     0.36600
C56         C  0.16122068  0.87061962  0.66010960     0.36700
C57         C  0.08984756  0.73000146  0.73660314    -0.20800
C58         C  0.08169539  0.73625806  0.70225959    -0.20800
C59         C  0.25711248  0.90088514  0.73363165    -0.20800
C60         C  0.24982731  0.90456109  0.69790765    -0.20800
C61         C  0.15633714  0.80482255  0.84001261    -0.21900
C62         C  0.18611241  0.83596150  0.83954508    -0.21900
C63         C  0.11099214  0.84237456  0.63279686    -0.21900
C64         C  0.14255876  0.87147829  0.63027275    -0.21900
C65         C  0.11998205  0.76622604  0.79037529    -0.17200
C66         C  0.09116594  0.78874953  0.66841676    -0.17200
C67         C  0.19686153  0.88994231  0.66308053    -0.17200
C68         C  0.22238738  0.87233671  0.78862941    -0.17200
H69         H  0.08515753  0.70518981  0.74666607     0.15700
H70         H  0.06981582  0.71696192  0.68091695     0.15700
H71         H  0.28227438  0.90888732  0.74449303     0.15700
H72         H  0.26855467  0.91569653  0.67622934     0.15700
H73         H  0.14634947  0.78742877  0.86326289     0.14000
H74         H  0.20363300  0.84723747  0.86243589     0.14000
H75         H  0.09127322  0.83317022  0.61188732     0.14000
H76         H  0.15175166  0.88941481  0.60742895     0.14000
H77         H  0.11652990  0.81233661  0.73996724     0.27200
H78         H  0.17520684  0.86929024  0.73621295     0.27200
N79         N  0.90198879  0.70597902  0.22513593    -0.35600
N80         N  0.85781617  0.69058669  0.28819474    -0.56100
N81         N  0.81737388  0.70763951  0.23937682    -0.35500
N82         N  0.86321341  0.72691209  0.17631108    -0.56100
C83         C  0.92135742  0.70367678  0.25219761     0.28000
C84         C  0.92199850  0.71899475  0.19518432     0.28000
C85         C  0.80051622  0.70200492  0.27156978     0.28000
C86         C  0.80454550  0.72175383  0.21584950     0.28000
C87         C  0.87557175  0.67490672  0.29825378     0.36600
C88         C  0.82705553  0.67287955  0.30466510     0.36700
C89         C  0.88050636  0.71933726  0.15113648     0.36600
C90         C  0.83449297  0.72177816  0.15911050     0.36700
C91         C  0.95441557  0.71645439  0.23966945    -0.20800
C92         C  0.95471742  0.72577489  0.20346756    -0.20800
C93         C  0.77741629  0.71375968  0.26901687    -0.20800
C94         C  0.77991128  0.72616465  0.23375240    -0.20800
C95         C  0.85656651  0.64808667  0.32246353    -0.21900
C96         C  0.82574562  0.64676305  0.32647561    -0.21900
C97         C  0.86434337  0.71239932  0.11719337    -0.21900
C98         C  0.83506122  0.71387648  0.12226982    -0.21900
C99         C  0.90801306  0.68356264  0.28427506    -0.17200
C100        C  0.90891692  0.71548307  0.15928356    -0.17200
C101        C  0.80555420  0.71862429  0.17738474    -0.17200
C102        C  0.79982917  0.67931682  0.29902667    -0.17200
H103        H  0.97531119  0.71632152  0.25414028     0.15700
H104        H  0.97593119  0.73420521  0.18467875     0.15700
H105        H  0.75857659  0.71069738  0.28927867     0.15700
H106        H  0.76297471  0.73395469  0.22142745     0.15700
H107        H  0.86356808  0.63040116  0.33475031     0.14000
H108        H  0.80445984  0.62801544  0.34263709     0.14000
H109        H  0.87184070  0.70501777  0.09201675     0.14000
H110        H  0.81533779  0.70760621  0.10184668     0.14000
H111        H  0.87604047  0.69260401  0.22424427     0.27200
H112        H  0.82996265  0.69519404  0.23145295     0.27200
O113        O  0.05938758  0.53839001  0.95211627    -0.77400
C114        C  0.07231166  0.53021921  0.06896578     0.83600
O115        O  0.98003360  0.41708892  0.96810434    -0.78600
O116        O  0.96684925  0.45863964  0.08628708    -0.80000
O117        O  0.96687431  0.54787196  0.00104066    -0.79800
O118        O  0.01542070  0.54549952  0.93618035    -0.78500
Zn119      Zn  0.03956908  0.50077598  0.99159638     1.55700
O120        O  0.97737554  0.53882751  0.05900731    -0.79900
Cd121      Cd  0.97600793  0.51503607  0.96965357     1.59700
Cd122      Cd  0.95682837  0.44151770  0.99257894     1.59600
O123        O  0.93271645  0.48505754  0.93596535    -0.79800
O124        O  0.99280365  0.49060754  0.00249425    -1.90400
Cd125      Cd  0.99498676  0.50378201  0.05598660     1.59900
O126        O  0.91511505  0.43268956  0.95781845    -0.79800
O127        O  0.04433038  0.52734703  0.08050769    -0.78500
C128        C  0.01122942  0.42574832  0.96386089     0.84100
C129        C  0.04633641  0.55293057  0.93298394     0.83700
O130        O  0.07362316  0.51986516  0.03637652    -0.77400
C131        C  0.96872943  0.55442199  0.03538951     0.84500
O132        O  0.03565519  0.45587087  0.97238647    -0.77500
C133        C  0.91091125  0.45280724  0.93598193     0.84700
C134        C  0.94819568  0.42708876  0.07664246     0.85000
O135        O  0.94109949  0.41792558  0.04298775    -0.79900
O136        O  0.07799763  0.54137598  0.47076152    -0.77400
C137        C  0.01844117  0.57654321  0.53165025     0.83600
O138        O  0.00369624  0.44816138  0.55652130    -0.78600
O139        O  0.91843445  0.48169945  0.53781723    -0.80000
O140        O  0.97439603  0.50710090  0.41029594    -0.79800
O141        O  0.04935408  0.51260576  0.42132807    -0.78500
Zn142      Zn  0.03995904  0.52346895  0.51139123     1.55700
O143        O  0.94420136  0.51811510  0.45117301    -0.79900
Cd144      Cd  0.99833340  0.48562897  0.44025033     1.59700
Cd145      Cd  0.96900500  0.44771008  0.52089296     1.59600
O146        O  0.97781959  0.43298568  0.43090393    -0.79800
O147        O  0.99291577  0.49229220  0.49375880    -1.90400
Cd148      Cd  0.95982290  0.50935547  0.50125251     1.59900
O149        O  0.95735422  0.40764424  0.48518673    -0.79800
O150        O  0.98746848  0.55761353  0.52221043    -0.78500
C151        C  0.03452874  0.46860962  0.56571576     0.84100
C152        C  0.07751166  0.53455265  0.43644886     0.83700
O153        O  0.04000765  0.56596547  0.53043059    -0.77400
C154        C  0.95480442  0.51906540  0.41846711     0.84500
O155        O  0.05198032  0.49868647  0.55150818    -0.77500
C156        C  0.96329738  0.40599644  0.45119166     0.84700
C157        C  0.90919741  0.45388599  0.55590480     0.85000
O158        O  0.92558564  0.43761108  0.55212059    -0.79900
N159        N  0.80222510  0.09676640  0.27181401    -0.35600
N160        N  0.83634782  0.15469732  0.22139481    -0.56100
N161        N  0.88964563  0.18230779  0.27379570    -0.35500
N162        N  0.85753337  0.12179330  0.32542969    -0.56100
C163        C  0.78201168  0.08484224  0.24182927     0.28000
C164        C  0.79280049  0.06994061  0.29504378     0.28000
C165        C  0.90431577  0.20583638  0.24662963     0.28000
C166        C  0.91386741  0.18790466  0.29875743     0.28000
C167        C  0.80460732  0.13991933  0.20741061     0.36600
C168        C  0.85258383  0.18756443  0.20919690     0.36700
C169        C  0.83113243  0.09965012  0.34686312     0.36600
C170        C  0.87934828  0.14736154  0.34812869     0.36700
C171        C  0.75980059  0.04970065  0.24548733    -0.20800
C172        C  0.76652790  0.04034549  0.27921304    -0.20800
C173        C  0.93885549  0.22608459  0.25350305    -0.20800
C174        C  0.94492077  0.21473705  0.28646509    -0.20800
C175        C  0.80111352  0.16284231  0.18450175    -0.21900
C176        C  0.83164340  0.19322056  0.18571578    -0.21900
C177        C  0.83775444  0.10948694  0.38349844    -0.21900
C178        C  0.86838974  0.13978578  0.38430362    -0.21900
C179        C  0.77880586  0.10604842  0.21534773    -0.17200
C180        C  0.79886359  0.07463473  0.33312319    -0.17200
C181        C  0.90591991  0.17975073  0.33614347    -0.17200
C182        C  0.88599734  0.21240680  0.21944156    -0.17200
H183        H  0.73919054  0.03312527  0.22710672     0.15700
H184        H  0.75177115  0.01530273  0.29183982     0.15700
H185        H  0.95716852  0.24823085  0.23787916     0.15700
H186        H  0.96875767  0.22717397  0.30152369     0.15700
H187        H  0.77871050  0.15840275  0.16920446     0.14000
H188        H  0.83744862  0.21688279  0.17160182     0.14000
H189        H  0.82096051  0.09754312  0.40673126     0.14000
H190        H  0.87997460  0.15582704  0.40832182     0.14000
H191        H  0.81571055  0.12252957  0.27971128     0.27200
H192        H  0.86380099  0.16886627  0.27963537     0.27200
N193        N  0.28660600  0.10658145  0.24865161    -0.35600
N194        N  0.28368170  0.14964192  0.19034868    -0.56100
N195        N  0.28384859  0.19273654  0.25141068    -0.35500
N196        N  0.28441505  0.14860055  0.30988664    -0.56100
C197        C  0.28155625  0.08657657  0.21873320     0.28000
C198        C  0.28508783  0.08805536  0.27864328     0.28000
C199        C  0.28069784  0.20877067  0.22145633     0.28000
C200        C  0.27761954  0.20665700  0.28133319     0.28000
C201        C  0.29461643  0.13115504  0.17093149     0.36600
C202        C  0.29666459  0.18054594  0.17319085     0.36700
C203        C  0.29927216  0.13245297  0.32682315     0.36600
C204        C  0.29428750  0.17813272  0.32899258     0.36700
C205        C  0.27522659  0.05422952  0.23008949    -0.20800
C206        C  0.27762912  0.05524304  0.26792568    -0.20800
C207        C  0.27114046  0.23247924  0.23219128    -0.20800
C208        C  0.26899473  0.23102280  0.27000981    -0.20800
C209        C  0.31216303  0.14932432  0.13984015    -0.21900
C210        C  0.31363478  0.18073907  0.14141501    -0.21900
C211        C  0.31648818  0.15040946  0.35818184    -0.21900
C212        C  0.31316541  0.17929975  0.35969388    -0.21900
C213        C  0.29229356  0.09987628  0.18290893    -0.17200
C214        C  0.29953417  0.10307427  0.31288395    -0.17200
C215        C  0.29002353  0.20587200  0.31677532    -0.17200
C216        C  0.29573197  0.20949907  0.18739655    -0.17200
H217        H  0.27267969  0.03333025  0.21281235     0.15700
H218        H  0.27715650  0.03530301  0.28529595     0.15700
H219        H  0.26912067  0.25111660  0.21488055     0.15700
H220        H  0.26529452  0.24861884  0.28724131     0.15700
H221        H  0.32437036  0.14157943  0.11931689     0.14000
H222        H  0.32699490  0.20189196  0.12230260     0.14000
H223        H  0.33117101  0.14414378  0.37705601     0.14000
H224        H  0.32500346  0.19982368  0.37986486     0.14000
H225        H  0.29875096  0.13337139  0.24830942     0.27200
H226        H  0.29787716  0.18008201  0.25173335     0.27200
N227        N  0.70690879  0.81475141  0.74361404    -0.35600
N228        N  0.70976399  0.85455995  0.80973757    -0.56100
N229        N  0.69144794  0.89794839  0.76856000    -0.35500
N230        N  0.68979620  0.85949257  0.70257404    -0.56100
C231        C  0.70027148  0.79137232  0.77063792     0.28000
C232        C  0.69405580  0.79651811  0.71209622     0.28000
C233        C  0.68568150  0.90490280  0.80323328     0.28000
C234        C  0.67212084  0.90525820  0.74584954     0.28000
C235        C  0.71671107  0.83104901  0.82446156     0.36600
C236        C  0.71177734  0.87555542  0.83753369     0.36700
C237        C  0.69387605  0.84246882  0.67415895     0.36600
C238        C  0.68237960  0.88257385  0.68764244     0.36700
C239        C  0.68503432  0.75836907  0.75566368    -0.20800
C240        C  0.68136461  0.76163282  0.71877109    -0.20800
C241        C  0.66452284  0.91919615  0.80201180    -0.20800
C242        C  0.65595789  0.91933768  0.76587726    -0.20800
C243        C  0.72479223  0.83815327  0.86147445    -0.21900
C244        C  0.72187398  0.86653406  0.86972686    -0.21900
C245        C  0.69086779  0.85602792  0.64095255    -0.21900
C246        C  0.68318283  0.88126042  0.64951403    -0.21900
C247        C  0.70502457  0.79827665  0.80884194    -0.17200
C248        C  0.69115891  0.80990993  0.67789345    -0.17200
C249        C  0.66797517  0.89906344  0.70760002    -0.17200
C250        C  0.69679011  0.89657383  0.83625793    -0.17200
H251        H  0.67623092  0.73413676  0.76997656     0.15700
H252        H  0.66897453  0.74037730  0.69951299     0.15700
H253        H  0.65501261  0.92748821  0.82486454     0.15700
H254        H  0.63895195  0.92797707  0.75567477     0.15700
H255        H  0.72889414  0.82238583  0.88119056     0.14000
H256        H  0.72363795  0.87714620  0.89698283     0.14000
H257        H  0.69090234  0.84645598  0.61356248     0.14000
H258        H  0.67658944  0.89527935  0.62993343     0.14000
H259        H  0.71940418  0.84150822  0.74645798     0.27200
H260        H  0.70812182  0.88944168  0.76073959     0.27200
O261        O  0.42191651  0.95144866  0.52718416    -0.77400
C262        C  0.45616296  0.92131440  0.43063510     0.83600
O263        O  0.53981398  0.99221279  0.55677268    -0.78600
O264        O  0.55243229  0.02270741  0.42620777    -0.80000
O265        O  0.47055071  0.05619290  0.46216760    -0.79800
O266        O  0.43075684  0.00534088  0.52826458    -0.78500
Zn267      Zn  0.46594999  0.95520771  0.50843992     1.55700
O268        O  0.47883440  0.02919029  0.41478660    -0.79900
Cd269      Cd  0.47885510  0.03508101  0.50810579     1.59700
Cd270      Cd  0.54100610  0.02598051  0.51864483     1.59600
O271        O  0.50868113  0.07470246  0.54609204    -0.79800
O272        O  0.49597433  0.00336513  0.49313976    -1.90400
Cd273      Cd  0.50053421  0.00182001  0.43815440     1.59900
O274        O  0.55620285  0.07213096  0.54737680    -0.79800
O275        O  0.47378459  0.95097062  0.41552869    -0.78500
C276        C  0.51872113  0.96112557  0.56533944     0.84100
C277        C  0.41156905  0.97298696  0.53275091     0.83700
O278        O  0.45216873  0.91931059  0.46565803    -0.77400
C279        C  0.46843998  0.04888284  0.42804666     0.84500
O280        O  0.48985923  0.94355549  0.54925933    -0.77500
C281        C  0.53932582  0.08658179  0.55731225     0.84700
C282        C  0.57905212  0.03302329  0.44641442     0.85000
O283        O  0.57790987  0.03470521  0.48129911    -0.79900
O284        O  0.46473290  0.55138847  0.46822662    -0.77400
C285        C  0.44279370  0.48116779  0.56575947     0.83600
O286        O  0.57168868  0.57506728  0.53097966    -0.78600
O287        O  0.51798142  0.44706903  0.54198091    -0.80000
O288        O  0.46891022  0.45510024  0.42482953    -0.79800
O289        O  0.47849530  0.53410581  0.41724916    -0.78500
Zn290      Zn  0.48757118  0.53754836  0.50994495     1.55700
O291        O  0.45658882  0.42525743  0.47735598    -0.79900
Cd292      Cd  0.50086762  0.50619220  0.43835403     1.59700
Cd293      Cd  0.55530245  0.52770993  0.50774178     1.59600
O294        O  0.54760228  0.52493324  0.41273117    -0.79800
O295        O  0.50679658  0.50888477  0.49321242    -1.90400
Cd296      Cd  0.48554496  0.46186435  0.51605300     1.59900
O297        O  0.58316806  0.53684679  0.46034296    -0.79800
O298        O  0.45362944  0.46097517  0.55603809    -0.78500
C299        C  0.55798694  0.59359521  0.53652090     0.84100
C300        C  0.46475696  0.54966936  0.43300040     0.83700
O301        O  0.45295633  0.51059539  0.55054882    -0.77400
C302        C  0.45310223  0.42680401  0.44270080     0.84500
O303        O  0.52655164  0.58289894  0.52972242    -0.77500
C304        C  0.57743536  0.53585243  0.42580553     0.84700
C305        C  0.54865124  0.46535106  0.55321963     0.85000
O306        O  0.56606100  0.49725198  0.54436272    -0.79900
O307        O  0.46111365  0.91871197  0.03268206    -0.77400
C308        C  0.43578301  0.96168448  0.93500765     0.83600
O309        O  0.56700030  0.00204271  0.96446347    -0.78600
O310        O  0.51280183  0.07246066  0.94841340    -0.80000
O311        O  0.46214923  0.02120001  0.07057609    -0.79800
O312        O  0.46990492  0.95058539  0.08239797    -0.78500
Zn313      Zn  0.48330631  0.95469590  0.98988335     1.55700
O314        O  0.45349396  0.04089682  0.01741365    -0.79900
Cd315      Cd  0.49324076  0.00080159  0.05866763     1.59700
Cd316      Cd  0.55024912  0.03257075  0.98887554     1.59600
O317        O  0.54017822  0.02979156  0.08311459    -0.79800
O318        O  0.50127240  0.00321744  0.00404771    -1.90400
Cd319      Cd  0.47991344  0.02808783  0.97944988     1.59900
O320        O  0.57754027  0.05094380  0.03666249    -0.79800
O321        O  0.44553477  0.99298291  0.94333343    -0.78500
C322        C  0.55302862  0.96946058  0.96038834     0.84100
C323        C  0.45838482  0.92083321  0.06758615     0.83700
O324        O  0.44797983  0.94440525  0.95039059    -0.77400
C325        C  0.44866791  0.03559827  0.05199667     0.84500
O326        O  0.52204451  0.94890538  0.96927716    -0.77500
C327        C  0.57060740  0.04715367  0.07094568     0.84700
C328        C  0.54437327  0.08657003  0.93999133     0.85000
O329        O  0.56245501  0.07430421  0.95279869    -0.79900
O330        O  0.43984837  0.49664525  0.95710482    -0.77400
C331        C  0.46398812  0.54751887  0.06381739     0.83600
O332        O  0.56031110  0.56169005  0.94878298    -0.78600
O333        O  0.55616899  0.53789779  0.07442175    -0.80000
O334        O  0.46714881  0.42366749  0.03239123    -0.79800
O335        O  0.43818399  0.44584842  0.96368846    -0.78500
Zn336      Zn  0.48185593  0.53045664  0.98644020     1.55700
O337        O  0.48099966  0.45886212  0.08095673    -0.79900
Cd338      Cd  0.48217944  0.45534007  0.98736548     1.59700
Cd339      Cd  0.55043833  0.52139250  0.98231931     1.59600
O340        O  0.50830923  0.44055079  0.94963922    -0.79800
O341        O  0.50420789  0.50445695  0.00355035    -1.90400
Cd342      Cd  0.50530617  0.50834326  0.05856660     1.59900
O343        O  0.55990107  0.48653530  0.95234696    -0.79800
O344        O  0.47891861  0.53281998  0.07915922    -0.78500
C345        C  0.54618284  0.57973728  0.94277879     0.84100
C346        C  0.42516825  0.46386588  0.95316557     0.83700
O347        O  0.46344301  0.54910391  0.02861487    -0.77400
C348        C  0.46676518  0.42857882  0.06687566     0.84500
O349        O  0.51674164  0.57160085  0.95556325    -0.77500
C350        C  0.53969803  0.45611921  0.94043988     0.84700
C351        C  0.58442288  0.54985328  0.05708178     0.85000
O352        O  0.58562092  0.54355813  0.02315608    -0.79900
C353        C  0.66204090  0.33465637  0.71148890     0.46500
H354        H  0.66131519  0.33479569  0.68105124    -0.02500
C355        C  0.66285313  0.33456769  0.78281342     0.46600
H356        H  0.66332802  0.33476137  0.81341295    -0.02500
C357        C  0.64189634  0.29769058  0.72823324    -0.16200
C358        C  0.69886674  0.35073020  0.72741501    -0.16000
C359        C  0.64618318  0.35541648  0.72848478    -0.16300
C360        C  0.64248288  0.29755010  0.76640025    -0.16300
C361        C  0.69922300  0.35084199  0.76566362    -0.15900
C362        C  0.64598241  0.35481253  0.76664766    -0.16200
C363        C  0.62275365  0.41678036  0.81699619    -0.13300
C364        C  0.59821559  0.39465074  0.84240879     0.17100
C365        C  0.58842251  0.35932401  0.84157553     0.03400
C366        C  0.60418003  0.34710472  0.81685645    -0.11800
C367        C  0.62916779  0.36930256  0.79151673    -0.02900
C368        C  0.63800144  0.40457182  0.79163332     0.02600
C369        C  0.58235719  0.40869208  0.86868875     0.09500
N370        N  0.56181698  0.33544485  0.86511278     0.65800
H371        H  0.59647593  0.31990556  0.81711633     0.18700
N372        N  0.66313961  0.42881327  0.76708155     0.76300
H373        H  0.63029967  0.44393785  0.81693008     0.10200
C374        C  0.59687583  0.42233027  0.90352346     0.03900
C375        C  0.58270277  0.43756700  0.92631116    -0.04800
C376        C  0.55330713  0.43870443  0.91578658    -0.23200
C377        C  0.53807975  0.42387715  0.88148554     0.13200
C378        C  0.55279331  0.40945531  0.85829196    -0.12300
N379        N  0.62584950  0.42058827  0.91638890     0.64900
H380        H  0.59461328  0.44831098  0.95264567     0.12700
N381        N  0.50867321  0.42487115  0.86881834     0.61500
H382        H  0.54123178  0.39911375  0.83171910     0.08900
O383        O  0.69417053  0.44278661  0.77608567    -0.40000
O384        O  0.65421823  0.44315087  0.74299222    -0.39100
O385        O  0.56874310  0.33089375  0.89759108    -0.39100
O386        O  0.53110826  0.32386687  0.85581249    -0.36900
O387        O  0.51243261  0.44893540  0.84765281    -0.37800
O388        O  0.47968656  0.39820472  0.87162912    -0.33900
O389        O  0.65529763  0.44627129  0.91216952    -0.35300
O390        O  0.62159002  0.39705729  0.93864478    -0.39600
C391        C  0.60445321  0.15882666  0.87291309    -0.13300
C392        C  0.58780053  0.17813189  0.86830004     0.17100
C393        C  0.55674632  0.16674977  0.88755926     0.03400
C394        C  0.54329258  0.13713478  0.91018275    -0.11800
C395        C  0.56005385  0.11797598  0.91509858    -0.02900
C396        C  0.59121301  0.12941611  0.89595609     0.02600
C397        C  0.60211432  0.20868296  0.84204704     0.09500
N398        N  0.53892582  0.18562166  0.88565923     0.65800
H399        H  0.51961034  0.12945449  0.92456750     0.18700
N400        N  0.60924267  0.11077817  0.89825721     0.76300
H401        H  0.62763107  0.16606087  0.85774101     0.10200
C402        C  0.63632405  0.23611772  0.84389297     0.03900
C403        C  0.64844564  0.26405185  0.81895050    -0.04800
C404        C  0.62762269  0.26579729  0.79111203    -0.23200
C405        C  0.59350844  0.23799506  0.78880941     0.13200
C406        C  0.58142725  0.21005375  0.81381725    -0.12300
N407        N  0.65908282  0.23666789  0.87158044     0.64900
H408        H  0.67462343  0.28475424  0.82150972     0.12700
N409        N  0.57000282  0.23805589  0.76251680     0.61500
H410        H  0.55537810  0.18915489  0.81109750     0.08900
O411        O  0.63502846  0.12183572  0.91898379    -0.40000
O412        O  0.60431435  0.08856070  0.87393253    -0.39100
O413        O  0.51145510  0.17322882  0.86756385    -0.39100
O414        O  0.54531509  0.20874673  0.90937102    -0.36900
O415        O  0.55679887  0.21395845  0.73911038    -0.37800
O416        O  0.55529205  0.25509300  0.76955241    -0.33900
O417        O  0.68161920  0.22916903  0.86285681    -0.35300
O418        O  0.66218818  0.25258234  0.90133974    -0.39600
C419        C  0.56908780  0.40048531  0.60073874    -0.13300
C420        C  0.59000589  0.42005695  0.63023279     0.17100
C421        C  0.59814860  0.45491044  0.63328065     0.03400
C422        C  0.58516025  0.46924913  0.60762341    -0.11800
C423        C  0.56379494  0.44958737  0.57835979    -0.02900
C424        C  0.55618804  0.41482132  0.57493717     0.02600
C425        C  0.60410493  0.40411068  0.65656983     0.09500
N426        N  0.61894920  0.47594268  0.66290225     0.65800
H427        H  0.59128240  0.49583495  0.61114568     0.18700
N428        N  0.53719842  0.39428410  0.54412391     0.76300
H429        H  0.56323513  0.37397684  0.59727447     0.10200
C430        C  0.58329400  0.37878837  0.68257617     0.03900
C431        C  0.59720772  0.36373540  0.70630320    -0.04800
C432        C  0.63186548  0.37293556  0.70431041    -0.23200
C433        C  0.65238299  0.39782007  0.67761414     0.13200
C434        C  0.63858200  0.41327915  0.65457962    -0.12300
N435        N  0.54788189  0.36811955  0.68507794     0.64900
H436        H  0.58071965  0.34434647  0.72595271     0.12700
N437        N  0.68778464  0.40873766  0.67429130     0.61500
H438        H  0.65494858  0.43243558  0.63465398     0.08900
O439        O  0.50658335  0.37093095  0.54847297    -0.40000
O440        O  0.55297113  0.39395731  0.51563055    -0.39100
O441        O  0.65019493  0.49666848  0.65738570    -0.39100
O442        O  0.60496880  0.47914171  0.69151497    -0.36900
O443        O  0.69780370  0.39863228  0.64705958    -0.37800
O444        O  0.70922128  0.43463166  0.69245892    -0.33900
O445        O  0.52643019  0.34232743  0.66678230    -0.35300
O446        O  0.53880021  0.38768250  0.70021790    -0.39600
C447        C  0.58885388  0.23058216  0.65412538    -0.13300
C448        C  0.59818319  0.20512783  0.65912580     0.17100
C449        C  0.62276813  0.21094052  0.68667411     0.03400
C450        C  0.63629806  0.24079019  0.70895826    -0.11800
C451        C  0.62647913  0.26587491  0.70426563    -0.02900
C452        C  0.60273192  0.26062398  0.67605738     0.02600
C453        C  0.58288771  0.17368193  0.63442667     0.09500
N454        N  0.63405673  0.18663581  0.69287538     0.65800
H455        H  0.65498960  0.24458060  0.72987435     0.18700
N456        N  0.59094376  0.28461206  0.67048847     0.76300
H457        H  0.57073240  0.22729134  0.63274301     0.10200
C458        C  0.54719545  0.15276911  0.62940781     0.03900
C459        C  0.53386141  0.12524017  0.60397013    -0.04800
C460        C  0.55514290  0.11713269  0.58313286    -0.23200
C461        C  0.59089914  0.13792973  0.58835128     0.13200
C462        C  0.60422546  0.16578277  0.61345779    -0.12300
N463        N  0.52388601  0.15837072  0.65076206     0.64900
H464        H  0.50642238  0.10961637  0.60112749     0.12700
N465        N  0.61430570  0.13226517  0.56726663     0.61500
H466        H  0.63162507  0.18200529  0.61569220     0.08900
O467        O  0.60254225  0.30550215  0.64389273    -0.40000
O468        O  0.56355936  0.27900660  0.68560584    -0.39100
O469        O  0.66252178  0.19286082  0.68018803    -0.39100
O470        O  0.62054494  0.16470100  0.71831348    -0.36900
O471        O  0.62562310  0.14834992  0.53736642    -0.37800
O472        O  0.62939921  0.11809927  0.58230281    -0.33900
O473        O  0.50694081  0.17032539  0.63530971    -0.35300
O474        O  0.51422144  0.14365586  0.68160002    -0.39600
C475        C  0.62495299  0.74016458  0.61753378    -0.13300
C476        C  0.64400801  0.72692814  0.60117170     0.17100
C477        C  0.67977478  0.74449672  0.60562786     0.03400
C478        C  0.69542817  0.77329146  0.62892184    -0.11800
C479        C  0.67589912  0.78507434  0.64711301    -0.02900
C480        C  0.64055934  0.76907167  0.64027372     0.02600
C481        C  0.62501717  0.69335072  0.58230049     0.09500
N482        N  0.70051077  0.73383185  0.58643592     0.65800
H483        H  0.72265683  0.78576125  0.63385909     0.18700
N484        N  0.61983078  0.78050530  0.65812055     0.76300
H485        H  0.59749030  0.72696783  0.61403338     0.10200
C486        C  0.62247206  0.66324371  0.59790691     0.03900
C487        C  0.60048430  0.63112745  0.58223463    -0.04800
C488        C  0.57979921  0.62816408  0.55210174    -0.23200
C489        C  0.58201497  0.65818243  0.53664699     0.13200
C490        C  0.60477991  0.69051662  0.55169237    -0.12300
N491        N  0.63971538  0.66441967  0.63139010     0.64900
H492        H  0.59864777  0.60813200  0.59454916     0.12700
N493        N  0.56210529  0.65642987  0.50525270     0.61500
H494        H  0.60609503  0.71350281  0.54002900     0.08900
O495        O  0.60447281  0.76588805  0.68743226    -0.40000
O496        O  0.61036381  0.79848226  0.64020263    -0.39100
O497        O  0.71159860  0.74627889  0.55494681    -0.39100
O498        O  0.71530826  0.72085862  0.60436746    -0.36900
O499        O  0.53540585  0.65827983  0.50978354    -0.37800
O500        O  0.57532050  0.66169997  0.47364512    -0.33900
O501        O  0.62570589  0.66360691  0.66168476    -0.35300
O502        O  0.66290238  0.65653872  0.63076192    -0.39600
C503        C  0.58528087  0.88758343  0.66870368    -0.13300
C504        C  0.59699702  0.91830346  0.64888915     0.17100
C505        C  0.63214036  0.94303914  0.64898965     0.03400
C506        C  0.65497377  0.93645764  0.66835228    -0.11800
C507        C  0.64320975  0.90579983  0.68811365    -0.02900
C508        C  0.60803511  0.88134166  0.68874460     0.02600
C509        C  0.57202930  0.92547395  0.63075181     0.09500
N510        N  0.64501651  0.97495982  0.62959670     0.65800
H511        H  0.68196771  0.95529329  0.66802182     0.18700
N512        N  0.59494900  0.85084749  0.71083368     0.76300
H513        H  0.55823565  0.86899630  0.66971102     0.10200
C514        C  0.55079042  0.90459424  0.60193611     0.03900
C515        C  0.52990086  0.91446646  0.58325437    -0.04800
C516        C  0.53028401  0.94507160  0.59277282    -0.23200
C517        C  0.54910924  0.96402671  0.62384987     0.13200
C518        C  0.56963758  0.95398115  0.64263656    -0.12300
N519        N  0.55222842  0.87500974  0.58941253     0.64900
H520        H  0.51579672  0.89990086  0.55922051     0.12700
N521        N  0.54851448  0.99420451  0.63589297     0.61500
H522        H  0.58464702  0.96917207  0.66593899     0.08900
O523        O  0.58853549  0.85241622  0.74436047    -0.40000
O524        O  0.58187838  0.82172362  0.69531989    -0.39100
O525        O  0.65327693  0.00227914  0.64745897    -0.39100
O526        O  0.65571511  0.97712357  0.59709756    -0.36900
O527        O  0.52716845  0.99121729  0.66001289    -0.37800
O528        O  0.57385662  0.02362540  0.62957219    -0.33900
O529        O  0.52764911  0.84519764  0.59604029    -0.35300
O530        O  0.57414185  0.87868978  0.56569652    -0.39600
C531        C  0.67292175  0.71482172  0.86224372    -0.13300
C532        C  0.63864723  0.70607465  0.86773240     0.17100
C533        C  0.62808880  0.72964720  0.85673289     0.03400
C534        C  0.65117437  0.76057083  0.84004294    -0.11800
C535        C  0.68471604  0.76853437  0.83326076    -0.02900
C536        C  0.69595563  0.74590440  0.84484172     0.02600
C537        C  0.61423999  0.67312737  0.88597460     0.09500
N538        N  0.59348897  0.72179749  0.86034430     0.65800
H539        H  0.64237070  0.77781580  0.83046735     0.18700
N540        N  0.73034396  0.75408720  0.83841284     0.76300
H541        H  0.68180418  0.69762531  0.87155289     0.10200
C542        C  0.60909413  0.64089416  0.87362518     0.03900
C543        C  0.58547548  0.61063342  0.89153750    -0.04800
C544        C  0.56617915  0.61157658  0.92129543    -0.23200
C545        C  0.57085742  0.64365140  0.93326137     0.13200
C546        C  0.59520745  0.67401311  0.91608464    -0.12300
N547        N  0.62718447  0.63824133  0.84272259     0.64900
H548        H  0.58240007  0.58614052  0.88230632     0.12700
N549        N  0.55258445  0.64610650  0.96406782     0.61500
H550        H  0.59961909  0.69854709  0.92678855     0.08900
O551        O  0.73763245  0.74397270  0.80913761    -0.40000
O552        O  0.75402847  0.77693224  0.85782648    -0.39100
O553        O  0.58619530  0.73779778  0.88400351    -0.39100
O554        O  0.57273174  0.70608236  0.83452647    -0.36900
O555        O  0.56591934  0.65168754  0.99570659    -0.37800
O556        O  0.52771437  0.65091958  0.95848401    -0.33900
O557        O  0.65112948  0.63194068  0.84813215    -0.35300
O558        O  0.61382399  0.63316375  0.81113577    -0.39600
C559        C  0.67780502  0.94391361  0.90899390    -0.13300
C560        C  0.64315686  0.91986216  0.91510126     0.17100
C561        C  0.62969564  0.88567287  0.90224433     0.03400
C562        C  0.64998635  0.87706271  0.88082316    -0.11800
C563        C  0.68309901  0.90227987  0.87095088    -0.02900
C564        C  0.69790390  0.93516567  0.88713160     0.02600
C565        C  0.62020034  0.93243773  0.92787580     0.09500
N566        N  0.59424537  0.86094786  0.90563483     0.65800
H567        H  0.63842031  0.85178470  0.86795122     0.18700
N568        N  0.73230072  0.96053366  0.87882292     0.76300
H569        H  0.68848011  0.97018259  0.91895143     0.10200
C570        C  0.60170630  0.92130490  0.96104895     0.03900
C571        C  0.57860291  0.93239750  0.97019565    -0.04800
C572        C  0.57426197  0.95519585  0.94725055    -0.23200
C573        C  0.59293612  0.96651327  0.91424125     0.13200
C574        C  0.61544771  0.95485992  0.90471052    -0.12300
N575        N  0.60762533  0.90064630  0.98678436     0.64900
H576        H  0.56509560  0.92437503  0.99617070     0.12700
N577        N  0.58849011  0.98888681  0.88954731     0.61500
H578        H  0.62911667  0.96311798  0.87883789     0.08900
O579        O  0.75641287  0.95874247  0.89422606    -0.40000
O580        O  0.73846726  0.97992132  0.85121980    -0.39100
O581        O  0.57378188  0.86033321  0.88155106    -0.39100
O582        O  0.58528867  0.83472317  0.92565243    -0.36900
O583        O  0.61052592  0.02059018  0.88884208    -0.37800
O584        O  0.56763173  0.97594857  0.86318421    -0.33900
O585        O  0.63059887  0.91550004  0.01085738    -0.35300
O586        O  0.58470376  0.86970280  0.99188125    -0.39600
C587        C  0.40938192  0.33613488  0.09737124    -0.13300
C588        C  0.39479238  0.34118125  0.12893493     0.17100
C589        C  0.40697906  0.37473741  0.14269045     0.03400
C590        C  0.43230621  0.40299403  0.12336104    -0.11800
C591        C  0.44594950  0.39821776  0.09051519    -0.02900
C592        C  0.43493476  0.36413957  0.07825828     0.02600
C593        C  0.36797173  0.31040618  0.14751031     0.09500
N594        N  0.39354031  0.38052371  0.17579858     0.65800
H595        H  0.44024041  0.42878707  0.13335381     0.18700
N596        N  0.44946615  0.35734260  0.04665444     0.76300
H597        H  0.40074981  0.31015098  0.08744242     0.10200
C598        C  0.33374510  0.29469204  0.13570226     0.03900
C599        C  0.30998989  0.26170100  0.14870233    -0.04800
C600        C  0.32038005  0.24417933  0.17288818    -0.23200
C601        C  0.35471743  0.26021994  0.18459125     0.13200
C602        C  0.37803230  0.29324069  0.17221567    -0.12300
N603        N  0.32339483  0.31136427  0.10921985     0.64900
H604        H  0.28369399  0.24956411  0.13958241     0.12700
N605        N  0.36664067  0.24258072  0.20778739     0.61500
H606        H  0.40456932  0.30480768  0.18037897     0.08900
O607        O  0.43291637  0.34864883  0.01679498    -0.40000
O608        O  0.47382333  0.35150128  0.05103589    -0.39100
O609        O  0.40824095  0.38261896  0.20605551    -0.39100
O610        O  0.37220214  0.39085257  0.17386497    -0.36900
O611        O  0.37753140  0.22425682  0.19327274    -0.37800
O612        O  0.37446635  0.25228776  0.24072351    -0.33900
O613        O  0.32329638  0.30468987  0.07543217    -0.35300
O614        O  0.32013153  0.33672254  0.11882986    -0.39600
C615        C  0.32232801  0.28902110  0.37209384    -0.13300
C616        C  0.35700481  0.30568347  0.36269739     0.17100
C617        C  0.36900186  0.28980097  0.33826310     0.03400
C618        C  0.34645879  0.25719998  0.32432811    -0.11800
C619        C  0.31188205  0.24009608  0.33395505    -0.02900
C620        C  0.29957063  0.25627939  0.35775668     0.02600
C621        C  0.38119944  0.33694100  0.38272935     0.09500
N622        N  0.40426603  0.30579524  0.32867236     0.65800
H623        H  0.35607494  0.24460034  0.30649919     0.18700
N624        N  0.26462743  0.23940133  0.36867739     0.76300
H625        H  0.31320098  0.30100189  0.39151008     0.10200
C626        C  0.39327319  0.37010774  0.36804189     0.03900
C627        C  0.41683465  0.39890707  0.38800740    -0.04800
C628        C  0.42904909  0.39523004  0.42240385    -0.23200
C629        C  0.41716175  0.36167178  0.43671994     0.13200
C630        C  0.39324012  0.33296198  0.41684645    -0.12300
N631        N  0.38199652  0.37501412  0.33294003     0.64900
H632        H  0.42538626  0.42431285  0.37649385     0.12700
N633        N  0.43004973  0.35605029  0.47043313     0.61500
H634        H  0.38440288  0.30728880  0.42780220     0.08900
O635        O  0.24528286  0.24965030  0.35574647    -0.40000
O636        O  0.25564813  0.22086470  0.39723491    -0.39100
O637        O  0.42342407  0.29756871  0.34591028    -0.39100
O638        O  0.41412782  0.32149971  0.29836112    -0.36900
O639        O  0.41205233  0.34840468  0.49914378    -0.37800
O640        O  0.45483653  0.35055374  0.46943252    -0.33900
O641        O  0.35912660  0.38331886  0.33154187    -0.35300
O642        O  0.40053062  0.38001525  0.30509198    -0.39600
C643        C  0.38012174  0.09912437  0.32849364    -0.13300
C644        C  0.37040282  0.07472679  0.35663552     0.17100
C645        C  0.33715844  0.05968203  0.37127707     0.03400
C646        C  0.31391297  0.06887013  0.35694750    -0.11800
C647        C  0.32390668  0.09357672  0.32890945    -0.02900
C648        C  0.35741148  0.10903133  0.31498720     0.02600
C649        C  0.39683347  0.06870527  0.37288887     0.09500
N650        N  0.32728259  0.03642462  0.40172952     0.65800
H651        H  0.28831509  0.05717908  0.36800233     0.18700
N652        N  0.36905431  0.13569809  0.28788206     0.76300
H653        H  0.40593481  0.11146864  0.31788949     0.10200
C654        C  0.40108969  0.04088150  0.36189066     0.03900
C655        C  0.42703458  0.03667783  0.37771793    -0.04800
C656        C  0.44891329  0.05990039  0.40452867    -0.23200
C657        C  0.44593379  0.08909370  0.41353683     0.13200
C658        C  0.41993507  0.09314117  0.39775947    -0.12300
N659        N  0.37901758  0.01645577  0.33513943     0.64900
H660        H  0.42869751  0.01399279  0.37056588     0.12700
N661        N  0.46910518  0.11488690  0.43856428     0.61500
H662        H  0.41760930  0.11541411  0.40511762     0.08900
O663        O  0.37661449  0.13011585  0.25619798    -0.40000
O664        O  0.37937453  0.16640235  0.29795813    -0.39100
O665        O  0.32929778  0.04788686  0.43395864    -0.39100
O666        O  0.31019461  0.00430354  0.39605017    -0.36900
O667        O  0.49558804  0.14063132  0.42606209    -0.37800
O668        O  0.45932320  0.11619359  0.47074992    -0.33900
O669        O  0.38915845  0.01892353  0.30234604    -0.35300
O670        O  0.35364840  0.98860728  0.34576362    -0.39600
C671        C  0.32218797  0.05000456  0.12272374    -0.13300
C672        C  0.35724604  0.06793701  0.13077087     0.17100
C673        C  0.37026470  0.09569255  0.15578636     0.03400
C674        C  0.34844973  0.10569868  0.17149193    -0.11800
C675        C  0.31348736  0.08803033  0.16352152    -0.02900
C676        C  0.30017021  0.05983170  0.13900563     0.02600
C677        C  0.38042284  0.05939915  0.11067427     0.09500
N678        N  0.40547224  0.11355811  0.16602470     0.65800
H679        H  0.35882380  0.12759415  0.19004472     0.18700
N680        N  0.26479478  0.04169971  0.12962236     0.76300
H681        H  0.31208235  0.02887210  0.10312174     0.10200
C682        C  0.38156004  0.02912840  0.11826937     0.03900
C683        C  0.40432320  0.02228738  0.09909370    -0.04800
C684        C  0.42547789  0.04468955  0.07142058    -0.23200
C685        C  0.42365714  0.07465700  0.06318995     0.13200
C686        C  0.40157713  0.08199260  0.08325720    -0.12300
N687        N  0.35978073  0.00511978  0.14537620     0.64900
H688        H  0.40497797  0.99889728  0.10543445     0.12700
N689        N  0.44448780  0.09827390  0.03527054     0.61500
H690        H  0.40064636  0.10527990  0.07715969     0.08900
O691        O  0.24586836  0.01178227  0.14232640    -0.40000
O692        O  0.25454126  0.05190275  0.10262032    -0.39100
O693        O  0.42457170  0.14395720  0.15465801    -0.39100
O694        O  0.41518584  0.10242738  0.19269007    -0.36900
O695        O  0.43246041  0.09547829  0.00324738    -0.37800
O696        O  0.47075617  0.12604958  0.04452278    -0.33900
O697        O  0.33199133  0.97931717  0.13543400    -0.35300
O698        O  0.37140142  0.00557338  0.17712580    -0.39600
C699        C  0.71182208  0.03033049  0.37933175    -0.13300
C700        C  0.70596077  0.05831952  0.38193871     0.17100
C701        C  0.73209106  0.09165019  0.37263235     0.03400
C702        C  0.76254759  0.09616166  0.35828159    -0.11800
C703        C  0.76843370  0.06823672  0.35480308    -0.02900
C704        C  0.74324579  0.03519299  0.36674196     0.02600
C705        C  0.67353897  0.05295433  0.39722355     0.09500
N706        N  0.72812657  0.12119407  0.37777815     0.65800
H707        H  0.78165160  0.12167012  0.34910874     0.18700
N708        N  0.74988991  0.00709207  0.36842124     0.76300
H709        H  0.69235382  0.00491711  0.38830833     0.10200
C710        C  0.64274751  0.03551949  0.37736638     0.03900
C711        C  0.61242528  0.03025054  0.39340187    -0.04800
C712        C  0.61216930  0.04198386  0.42925643    -0.23200
C713        C  0.64347161  0.06010528  0.44878364     0.13200
C714        C  0.67362647  0.06529752  0.43259694    -0.12300
N715        N  0.64188234  0.02319704  0.34084833     0.64900
H716        H  0.58889488  0.01626535  0.37790159     0.12700
N717        N  0.64536330  0.07356337  0.48499456     0.61500
H718        H  0.69730626  0.07875558  0.44797101     0.08900
O719        O  0.73108960  0.97972937  0.35068448    -0.40000
O720        O  0.76786102  0.00617140  0.39456211    -0.39100
O721        O  0.74002966  0.13924481  0.40651006    -0.39100
O722        O  0.72004024  0.13340103  0.35074530    -0.36900
O723        O  0.64556506  0.05639319  0.51251819    -0.37800
O724        O  0.65497871  0.10520090  0.48891869    -0.33900
O725        O  0.62996086  0.99128268  0.33554099    -0.35300
O726        O  0.64535046  0.04245866  0.31383584    -0.39600
C727        C  0.69063203  0.09088408  0.19630307    -0.13300
C728        C  0.68381690  0.07422729  0.16216762     0.17100
C729        C  0.70760641  0.06630187  0.14637869     0.03400
C730        C  0.73824712  0.07599104  0.16455703    -0.11800
C731        C  0.74535242  0.09354450  0.19808783    -0.02900
C732        C  0.72135060  0.10077372  0.21427999     0.02600
C733        C  0.65415345  0.06967843  0.14121894     0.09500
N734        N  0.70130249  0.04916580  0.11159481     0.65800
H735        H  0.75685814  0.07055637  0.15216717     0.18700
N736        N  0.72871904  0.11979228  0.24792508     0.76300
H737        H  0.67284243  0.09780229  0.20808374     0.10200
C738        C  0.62063893  0.04853972  0.15387800     0.03900
C739        C  0.59334921  0.04384063  0.13183850    -0.04800
C740        C  0.59908420  0.06014832  0.09735997    -0.23200
C741        C  0.63280104  0.08409711  0.08672828     0.13200
C742        C  0.65994589  0.08844059  0.10862322    -0.12300
N743        N  0.61390577  0.03037422  0.18802579     0.64900
H744        H  0.56769343  0.02567198  0.14081983     0.12700
N745        N  0.64000721  0.10408162  0.05380632     0.61500
H746        H  0.68578939  0.10639165  0.09996636     0.08900
O747        O  0.71631017  0.10386769  0.27765377    -0.40000
O748        O  0.74124482  0.15213786  0.24686763    -0.39100
O749        O  0.71541907  0.06661881  0.08309496    -0.39100
O750        O  0.68887502  0.01683608  0.11080623    -0.36900
O751        O  0.64311177  0.13374641  0.05548245    -0.37800
O752        O  0.65111393  0.09593299  0.02593877    -0.33900
O753        O  0.60566247  0.04159041  0.21577770    -0.35300
O754        O  0.60867159  0.99984998  0.18824676    -0.39600
C755        C  0.93852460  0.31136000  0.44065602    -0.13300
C756        C  0.94591442  0.31034342  0.40352535     0.17100
C757        C  0.95673809  0.33993490  0.38154878     0.03400
C758        C  0.96140927  0.37048550  0.39746954    -0.11800
C759        C  0.95475973  0.37204585  0.43503373    -0.02900
C760        C  0.94232031  0.34156983  0.45651832     0.02600
C761        C  0.93652709  0.27659283  0.38743893     0.09500
N762        N  0.96239537  0.33928033  0.34292492     0.65800
H763        H  0.97043472  0.39313082  0.38015355     0.18700
N764        N  0.93243441  0.34024754  0.49410347     0.76300
H765        H  0.92864646  0.28811894  0.45719946     0.10200
C766        C  0.95884801  0.26313340  0.38771230     0.03900
C767        C  0.94795288  0.23014814  0.37331309    -0.04800
C768        C  0.91480006  0.21027349  0.35942205    -0.23200
C769        C  0.89185844  0.22307364  0.36146446     0.13200
C770        C  0.90305573  0.25619187  0.37497899    -0.12300
N771        N  0.99252508  0.28263550  0.40239013     0.64900
H772        H  0.96565009  0.22048105  0.37183107     0.12700
N773        N  0.85719286  0.20286276  0.34951412     0.61500
H774        H  0.88544270  0.26600723  0.37601425     0.08900
O775        O  0.95213535  0.34117182  0.51930271    -0.40000
O776        O  0.90146076  0.32934859  0.50146624    -0.39100
O777        O  0.94273024  0.34241307  0.32051994    -0.39100
O778        O  0.99115251  0.34489467  0.33191795    -0.36900
O779        O  0.83442646  0.18582284  0.37304385    -0.37800
O780        O  0.84851581  0.20892165  0.31859406    -0.33900
O781        O  0.99838530  0.27648532  0.43469321    -0.35300
O782        O  0.01717247  0.29963281  0.38083961    -0.39600
C783        C  0.76139557  0.36448851  0.64775166    -0.13300
C784        C  0.79052449  0.39606015  0.65692413     0.17100
C785        C  0.78864968  0.41303522  0.68920933     0.03400
C786        C  0.75894139  0.39812544  0.71123368    -0.11800
C787        C  0.73035484  0.36581189  0.70284212    -0.02900
C788        C  0.73200655  0.34920259  0.67015186     0.02600
C789        C  0.82163807  0.41101620  0.63182322     0.09500
N790        N  0.81687447  0.44521776  0.70077413     0.65800
H791        H  0.75829683  0.41235315  0.73505172     0.18700
N792        N  0.70471879  0.31602088  0.65960886     0.76300
H793        H  0.76116492  0.35137077  0.62261083     0.10200
C794        C  0.83555638  0.39086358  0.61807094     0.03900
C795        C  0.86356756  0.40527044  0.59367179    -0.04800
C796        C  0.87894726  0.43986732  0.58186705    -0.23200
C797        C  0.86518460  0.46008915  0.59566819     0.13200
C798        C  0.83689446  0.44558024  0.61979932    -0.12300
N799        N  0.82219144  0.35573820  0.62913187     0.64900
H800        H  0.87335985  0.38896538  0.58389404     0.12700
N801        N  0.88014895  0.49581892  0.58645627     0.61500
H802        H  0.82653171  0.46158522  0.62873802     0.08900
O803        O  0.68650030  0.31379167  0.63219878    -0.40000
O804        O  0.70569740  0.28950601  0.66976538    -0.39100
O805        O  0.81542432  0.47251682  0.69653912    -0.39100
O806        O  0.83786058  0.44508788  0.72363986    -0.36900
O807        O  0.86598880  0.50510332  0.56263356    -0.37800
O808        O  0.90262632  0.51819984  0.60736834    -0.33900
O809        O  0.80466480  0.33190495  0.60648203    -0.35300
O810        O  0.83529198  0.34918837  0.65647244    -0.39600
C811        C  0.94882336  0.37098584  0.15457754    -0.13300
C812        C  0.92098575  0.33904214  0.14445885     0.17100
C813        C  0.89905124  0.33769483  0.11611802     0.03400
C814        C  0.90701601  0.36753184  0.09618889    -0.11800
C815        C  0.93630104  0.39916529  0.10435180    -0.02900
C816        C  0.95655071  0.40107249  0.13502056     0.02600
C817        C  0.91504302  0.30760076  0.16421649     0.09500
N818        N  0.86832089  0.30642536  0.10758413     0.65800
H819        H  0.89065740  0.36570210  0.07340389     0.18700
N820        N  0.98627900  0.43265201  0.14520508     0.76300
H821        H  0.96527524  0.37236749  0.17706366     0.10200
C822        C  0.91997881  0.28199738  0.14713995     0.03900
C823        C  0.91265306  0.25197447  0.16649764    -0.04800
C824        C  0.90075654  0.24718326  0.20276574    -0.23200
C825        C  0.89711603  0.27334992  0.22027702     0.13200
C826        C  0.90431918  0.30330778  0.20093236    -0.12300
N827        N  0.93247858  0.28605775  0.11031240     0.64900
H828        H  0.91513357  0.23177144  0.15279467     0.12700
N829        N  0.88422980  0.26892341  0.25694917     0.61500
H830        H  0.90074082  0.32296700  0.21433411     0.08900
O831        O  0.01509694  0.43859998  0.13399799    -0.40000
O832        O  0.98464280  0.44995240  0.17181398    -0.39100
O833        O  0.84152749  0.29932301  0.12505750    -0.39100
O834        O  0.86578923  0.29172021  0.07712282    -0.36900
O835        O  0.90424274  0.27539624  0.28383854    -0.37800
O836        O  0.85497848  0.26506024  0.26237371    -0.33900
O837        O  0.96421841  0.30016415  0.10522502    -0.35300
O838        O  0.91250476  0.26748492  0.08509059    -0.39600
C839        C  0.84721230  0.44284606  0.85835275    -0.13300
C840        C  0.81984490  0.40920016  0.86412911     0.17100
C841        C  0.82312114  0.38997865  0.89333349     0.03400
C842        C  0.85263923  0.40446979  0.91588149    -0.11800
C843        C  0.87998986  0.43831893  0.91047086    -0.02900
C844        C  0.87686677  0.45734329  0.88072700     0.02600
C845        C  0.78887460  0.39431364  0.83880035     0.09500
N846        N  0.79620623  0.35588452  0.90135363     0.65800
H847        H  0.85387068  0.38900632  0.93818681     0.18700
N848        N  0.90407002  0.49100438  0.87164956     0.76300
H849        H  0.84596289  0.45788092  0.83560435     0.10200
C850        C  0.76788146  0.40941795  0.83529879     0.03900
C851        C  0.73890920  0.39452266  0.81201307    -0.04800
C852        C  0.73085625  0.36561716  0.78983699    -0.23200
C853        C  0.75268352  0.35137248  0.79193088     0.13200
C854        C  0.78074416  0.36524989  0.81665318    -0.12300
N855        N  0.77570543  0.44018774  0.85499718     0.64900
H856        H  0.72292530  0.40621867  0.81061633     0.12700
N857        N  0.74694745  0.32288957  0.76912002     0.61500
H858        H  0.79679472  0.35362683  0.81792835     0.08900
O859        O  0.90173368  0.51714356  0.88018123    -0.40000
O860        O  0.92591927  0.49402816  0.84816238    -0.39100
O861        O  0.79942165  0.33036459  0.89232379    -0.39100
O862        O  0.77405346  0.35184556  0.92491867    -0.36900
O863        O  0.73126800  0.29272545  0.78218199    -0.37800
O864        O  0.76493265  0.32851669  0.74065925    -0.33900
O865        O  0.79170188  0.46893037  0.83879930    -0.35300
O866        O  0.75982927  0.43802243  0.88430381    -0.39600
C867        C  0.91912986  0.57005156  0.37143683    -0.13300
C868        C  0.94527527  0.58962598  0.34640551     0.17100
C869        C  0.97206249  0.58249680  0.34184770     0.03400
C870        C  0.97274549  0.55673062  0.36326532    -0.11800
C871        C  0.94774194  0.53865510  0.39022833    -0.02900
C872        C  0.92026437  0.54506339  0.39357340     0.02600
C873        C  0.94426104  0.61844575  0.32758062     0.09500
N874        N  0.00030824  0.60317163  0.31834614     0.65800
H875        H  0.99453532  0.55293269  0.36080643     0.18700
N876        N  0.89388482  0.52738641  0.42011929     0.76300
H877        H  0.89825871  0.57520335  0.37484613     0.10200
C878        C  0.93505037  0.61631639  0.29019733     0.03900
C879        C  0.92552369  0.63942305  0.27601880    -0.04800
C880        C  0.92504643  0.66474327  0.29855303    -0.23200
C881        C  0.93703794  0.66870765  0.33504937     0.13200
C882        C  0.94646168  0.64552942  0.34927895    -0.12300
N883        N  0.93228069  0.58908918  0.26717687     0.64900
H884        H  0.91639286  0.63621104  0.24785319     0.12700
N885        N  0.93841956  0.69515928  0.35835592     0.61500
H886        H  0.95372978  0.64747430  0.37803441     0.08900
O887        O  0.86599028  0.50185234  0.40997341    -0.40000
O888        O  0.89520918  0.54209763  0.45026611    -0.39100
O889        O  0.02538393  0.63014195  0.33125737    -0.39100
O890        O  0.00421107  0.59000841  0.28931302    -0.36900
O891        O  0.91523349  0.68760833  0.38184274    -0.37800
O892        O  0.96607025  0.72337275  0.36130953    -0.33900
O893        O  0.90378335  0.56183840  0.26396666    -0.35300
O894        O  0.95510178  0.59567790  0.24350820    -0.39600
C895        C  0.94097968  0.62235479  0.04040616    -0.13300
C896        C  0.95276492  0.63595020  0.07557352     0.17100
C897        C  0.97004929  0.62321400  0.09690686     0.03400
C898        C  0.97476274  0.59670937  0.08323266    -0.11800
C899        C  0.96235529  0.58221353  0.04834267    -0.02900
C900        C  0.94565572  0.59572946  0.02650304     0.02600
C901        C  0.94084538  0.65788988  0.09262914     0.09500
N902        N  0.98146321  0.63576496  0.13335395     0.65800
H903        H  0.98806774  0.58730606  0.10034510     0.18700
N904        N  0.93175854  0.58174263  0.99107931     0.76300
H905        H  0.92678037  0.63144003  0.02433129     0.10200
C906        C  0.96062735  0.69420925  0.09345831     0.03900
C907        C  0.94917153  0.71327073  0.11357388    -0.04800
C908        C  0.91836308  0.69634026  0.13297948    -0.23200
C909        C  0.89800471  0.66005224  0.13067922     0.13200
C910        C  0.90934809  0.64123904  0.11049071    -0.12300
N911        N  0.99264451  0.71190861  0.07493578     0.64900
H912        H  0.96488967  0.74111819  0.11526223     0.12700
N913        N  0.86658565  0.64180298  0.15037331     0.61500
H914        H  0.89404823  0.61328742  0.10986190     0.08900
O915        O  0.90104852  0.55802109  0.98858644    -0.40000
O916        O  0.94714048  0.59820569  0.96252447    -0.39100
O917        O  0.96352158  0.61880551  0.16046405    -0.39100
O918        O  0.01220208  0.65851688  0.13853164    -0.36900
O919        O  0.86613138  0.62825553  0.18102595    -0.37800
O920        O  0.83884511  0.63263193  0.13370577    -0.33900
O921        O  0.99436829  0.72576278  0.04412841    -0.35300
O922        O  0.01971428  0.72036191  0.09266804    -0.39600
C923        C  0.72807981  0.63374331  0.36824290    -0.13300
C924        C  0.70300165  0.60743204  0.34622565     0.17100
C925        C  0.70976694  0.60559685  0.30870701     0.03400
C926        C  0.74130324  0.62964565  0.29398050    -0.11800
C927        C  0.76642847  0.65568846  0.31609588    -0.02900
C928        C  0.75972126  0.65771784  0.35353064     0.02600
C929        C  0.66935940  0.58378850  0.36263032     0.09500
N930        N  0.68501073  0.57935719  0.28529804     0.65800
H931        H  0.74640158  0.62782928  0.26513264     0.18700
N932        N  0.78441732  0.68431537  0.37667706     0.76300
H933        H  0.72280871  0.63611702  0.39686156     0.10200
C934        C  0.66664376  0.56459363  0.39448569     0.03900
C935        C  0.63574983  0.54744765  0.41324637    -0.04800
C936        C  0.60707518  0.54890929  0.40094867    -0.23200
C937        C  0.60906121  0.56613485  0.36757970     0.13200
C938        C  0.64021215  0.58356663  0.34888781    -0.12300
N939        N  0.69528729  0.56298888  0.40875323     0.64900
H940        H  0.63454621  0.53377234  0.43838004     0.12700
N941        N  0.58074311  0.56871499  0.35391751     0.61500
H942        H  0.64208545  0.59868182  0.32475373     0.08900
O943        O  0.80075030  0.67698715  0.39974567    -0.40000
O944        O  0.78387316  0.71215085  0.38019895    -0.39100
O945        O  0.66812221  0.58692621  0.26330775    -0.39100
O946        O  0.68565763  0.55168695  0.28064273    -0.36900
O947        O  0.57818356  0.59480092  0.36209547    -0.37800
O948        O  0.56319603  0.54948624  0.32767073    -0.33900
O949        O  0.71012955  0.58002409  0.43731964    -0.35300
O950        O  0.69990150  0.53853860  0.39886065    -0.39600
C951        C  0.67712551  0.61675698  0.07594365    -0.13300
C952        C  0.67633611  0.62124792  0.11387114     0.17100
C953        C  0.64582022  0.60148198  0.13339228     0.03400
C954        C  0.61641513  0.57764298  0.11459752    -0.11800
C955        C  0.61681955  0.57319810  0.07633196    -0.02900
C956        C  0.64787391  0.59313465  0.05696121     0.02600
C957        C  0.70812217  0.64635538  0.13218488     0.09500
N958        N  0.64407075  0.60562825  0.17215040     0.65800
H959        H  0.59305851  0.56296104  0.13007934     0.18700
N960        N  0.65020881  0.59071992  0.01792354     0.76300
H961        H  0.70068813  0.63190580  0.06088972     0.10200
C962        C  0.72822324  0.63525760  0.15075283     0.03900
C963        C  0.75962888  0.65960152  0.16520950    -0.04800
C964        C  0.77205060  0.69507259  0.16046683    -0.23200
C965        C  0.75252005  0.70633936  0.14089542     0.13200
C966        C  0.72043588  0.68183140  0.12719073    -0.12300
N967        N  0.71826293  0.59949476  0.15280104     0.64900
H968        H  0.77494035  0.65079816  0.17960987     0.12700
N969        N  0.76541769  0.74211247  0.13335020     0.61500
H970        H  0.70549769  0.69038757  0.11168060     0.08900
O971        O  0.66251297  0.57304176  0.00497854    -0.40000
O972        O  0.64753711  0.61206542  0.99738814    -0.39100
O973        O  0.63537963  0.62674480  0.18379489    -0.39100
O974        O  0.64170465  0.58216843  0.19334675    -0.36900
O975        O  0.75453275  0.75860909  0.15170289    -0.37800
O976        O  0.78056905  0.75445842  0.10327383    -0.33900
O977        O  0.72864239  0.58678530  0.12842550    -0.35300
O978        O  0.70715688  0.58360476  0.18282685    -0.39600
C979        C  0.32562900  0.96631653  0.54727453    -0.13300
C980        C  0.31086348  0.93929554  0.57266127     0.17100
C981        C  0.32843210  0.92187940  0.58320157     0.03400
C982        C  0.36086780  0.93249801  0.56904233    -0.11800
C983        C  0.37623085  0.96042369  0.54465641    -0.02900
C984        C  0.35796285  0.97685018  0.53298763     0.02600
C985        C  0.27703249  0.92931831  0.58784862     0.09500
N986        N  0.31428132  0.89434947  0.60941817     0.65800
H987        H  0.37453492  0.91961494  0.57812692     0.18700
N988        N  0.37123884  0.00326179  0.50550238     0.76300
H989        H  0.31182057  0.97907109  0.53824358     0.10200
C990        C  0.27150902  0.95248444  0.60917814     0.03900
C991        C  0.24115783  0.94014022  0.62894369    -0.04800
C992        C  0.21745458  0.90469235  0.62939186    -0.23200
C993        C  0.22106020  0.88261900  0.60424526     0.13200
C994        C  0.25063024  0.89529513  0.58325454    -0.12300
N995        N  0.29829574  0.98706019  0.61559035     0.64900
H996        H  0.23858535  0.95717122  0.64832192     0.12700
N997        N  0.19696496  0.84651927  0.60275473     0.61500
H998        H  0.25419961  0.87774002  0.56565637     0.08900
O999        O  0.38208250  0.03424839  0.51481648    -0.40000
O1000       O  0.36495599  0.99487992  0.47199656    -0.39100
O1001       O  0.30204288  0.86357527  0.59849478    -0.39100
O1002       O  0.32036510  0.90111796  0.64326021    -0.36900
O1003       O  0.20171553  0.82603365  0.62252826    -0.37800
O1004       O  0.17732124  0.83482224  0.57526376    -0.33900
O1005       O  0.29587145  0.01193597  0.60252748    -0.35300
O1006       O  0.31997980  0.99276702  0.64052118    -0.39600
C1007       C  0.03557647  0.71362748  0.60783151    -0.13300
C1008       C  0.06082258  0.71287212  0.58599412     0.17100
C1009       C  0.09360767  0.74212772  0.58463349     0.03400
C1010       C  0.10225931  0.76859052  0.60999466    -0.11800
C1011       C  0.07799365  0.76763133  0.63463881    -0.02900
C1012       C  0.04377154  0.74144482  0.63131646     0.02600
C1013       C  0.05297615  0.68001437  0.56837949     0.09500
N1014       N  0.11792909  0.74563013  0.55739003     0.65800
H1015       H  0.12849559  0.78902181  0.61197873     0.18700
N1016       N  0.01782827  0.74149514  0.65361365     0.76300
H1017       H  0.00985918  0.69176075  0.60814922     0.10200
C1018       C  0.07148385  0.66307711  0.57702618     0.03900
C1019       C  0.06013648  0.62974815  0.56392803    -0.04800
C1020       C  0.02986234  0.61218466  0.54361095    -0.23200
C1021       C  0.01143857  0.62925979  0.53486774     0.13200
C1022       C  0.02349920  0.66305430  0.54678496    -0.12300
N1023       N  0.09999466  0.67780332  0.60166133     0.64900
H1024       H  0.07432386  0.61694861  0.57133473     0.12700
N1025       N  0.98013425  0.61267450  0.51460187     0.61500
H1026       H  0.00895131  0.67570328  0.54035763     0.08900
O1027       O  0.00612992  0.72126948  0.68074625    -0.40000
O1028       O  0.00154337  0.75553858  0.64136413    -0.39100
O1029       O  0.11402230  0.75299488  0.52484068    -0.39100
O1030       O  0.14695834  0.75109671  0.56735160    -0.36900
O1031       O  0.95223014  0.59891028  0.53185177    -0.37800
O1032       O  0.98029831  0.61870114  0.48062404    -0.33900
O1033       O  0.09452074  0.67510333  0.63589912    -0.35300
O1034       O  0.12862104  0.68345438  0.59009400    -0.39600
C1035       C  0.37030823  0.94871753  0.86348178    -0.13300
C1036       C  0.34507833  0.91482013  0.87123519     0.17100
C1037       C  0.35255249  0.89433816  0.89477168     0.03400
C1038       C  0.38378211  0.90941470  0.91337304    -0.11800
C1039       C  0.40764608  0.94454017  0.90851103    -0.02900
C1040       C  0.40143474  0.96375246  0.88182270     0.02600
C1041       C  0.31169172  0.90169637  0.85342740     0.09500
N1042       N  0.32827895  0.85883426  0.90136366     0.65800
H1043       H  0.38840645  0.89414507  0.93333075     0.18700
N1044       N  0.42628691  0.99862151  0.87319935     0.76300
H1045       H  0.36556751  0.96384563  0.84344061     0.10200
C1046       C  0.29298243  0.91910109  0.85745060     0.03900
C1047       C  0.26388420  0.90917256  0.83609155    -0.04800
C1048       C  0.25331184  0.88226934  0.81066973    -0.23200
C1049       C  0.27169815  0.86454126  0.80698997     0.13200
C1050       C  0.30060581  0.87428391  0.82856586    -0.12300
N1051       N  0.30349000  0.94715253  0.88276269     0.64900
H1052       H  0.24959839  0.92259684  0.83913539     0.12700
N1053       N  0.26202707  0.83733920  0.78075028     0.61500
H1054       H  0.31535665  0.86146314  0.82459966     0.08900
O1055       O  0.42206430  0.02292087  0.88463665    -0.40000
O1056       O  0.44703218  0.00430948  0.84734870    -0.39100
O1057       O  0.33234983  0.83573476  0.88613279    -0.39100
O1058       O  0.30825128  0.85090206  0.92837114    -0.36900
O1059       O  0.27331212  0.84479068  0.74831256    -0.37800
O1060       O  0.25193357  0.80719111  0.79236648    -0.33900
O1061       O  0.31840024  0.97773453  0.87076011    -0.35300
O1062       O  0.29107709  0.94121741  0.91478486    -0.39600
C1063       C  0.12574491  0.69000919  0.82681700    -0.13300
C1064       C  0.09569422  0.67299708  0.84711678     0.17100
C1065       C  0.07458128  0.68773312  0.85079973     0.03400
C1066       C  0.08306396  0.71850426  0.83251687    -0.11800
C1067       C  0.11284223  0.73516846  0.81158100    -0.02900
C1068       C  0.13460615  0.72109036  0.80924061     0.02600
C1069       C  0.08759432  0.64062202  0.86556993     0.09500
N1070       N  0.04535008  0.67256394  0.87417347     0.65800
H1071       H  0.06655486  0.72954943  0.83480350     0.18700
N1072       N  0.16620867  0.73845004  0.78999247     0.76300
H1073       H  0.14241190  0.67912275  0.82470481     0.10200
C1074       C  0.06278122  0.60856643  0.85127078     0.03900
C1075       C  0.05244335  0.57877842  0.87212830    -0.04800
C1076       C  0.06681913  0.58053495  0.90689905    -0.23200
C1077       C  0.09439299  0.61209669  0.91919447     0.13200
C1078       C  0.10447975  0.64201155  0.89843654    -0.12300
N1079       N  0.04713205  0.60604230  0.81628815     0.64900
H1080       H  0.03136616  0.55454368  0.86235580     0.12700
N1081       N  0.10991720  0.61491058  0.95429232     0.61500
H1082       H  0.12429274  0.66666442  0.90893480     0.08900
O1083       O  0.16682782  0.73301495  0.75597246    -0.40000
O1084       O  0.19345737  0.75051168  0.80836916    -0.39100
O1085       O  0.04844620  0.68261633  0.90716561    -0.39100
O1086       O  0.01600248  0.65646941  0.85995258    -0.36900
O1087       O  0.13769770  0.61472762  0.95594976    -0.37800
O1088       O  0.10063400  0.62572773  0.98154361    -0.33900
O1089       O  0.05800743  0.59775104  0.78834151    -0.35300
O1090       O  0.01831831  0.60401974  0.81489002    -0.39600
C1091       C  0.31735395  0.40944854  0.68601209    -0.13300
C1092       C  0.32190831  0.40295161  0.64942261     0.17100
C1093       C  0.29722486  0.37235828  0.63204243     0.03400
C1094       C  0.26755719  0.34951888  0.65099862    -0.11800
C1095       C  0.26254188  0.35658603  0.68728357    -0.02900
C1096       C  0.28799426  0.38645856  0.70512108     0.02600
C1097       C  0.35400170  0.42698821  0.63106105     0.09500
N1098       N  0.30235111  0.36372755  0.59563027     0.65800
H1099       H  0.24808561  0.32656295  0.63722683     0.18700
N1100       N  0.28376073  0.39451018  0.74211784     0.76300
H1101       H  0.33668265  0.43254309  0.69973911     0.10200
C1102       C  0.35589856  0.45079791  0.60440677     0.03900
C1103       C  0.38659247  0.47128592  0.58585753    -0.04800
C1104       C  0.41522462  0.46785928  0.59313177    -0.23200
C1105       C  0.41382163  0.44580830  0.62188081     0.13200
C1106       C  0.38329894  0.42574735  0.64064894    -0.12300
N1107       N  0.32670858  0.45364485  0.59499591     0.64900
H1108       H  0.38725682  0.48801344  0.56384481     0.12700
N1109       N  0.44279563  0.44264801  0.63161584     0.61500
H1110       H  0.38211336  0.40812870  0.66191815     0.08900
O1111       O  0.29536133  0.38471501  0.76825003    -0.40000
O1112       O  0.27662671  0.41807162  0.74779648    -0.39100
O1113       O  0.31649980  0.34571904  0.59146611    -0.39100
O1114       O  0.28562940  0.36642750  0.56924698    -0.36900
O1115       O  0.46141934  0.46027256  0.65815049    -0.37800
O1116       O  0.44424539  0.41653033  0.62086179    -0.33900
O1117       O  0.32314536  0.47736316  0.60941090    -0.35300
O1118       O  0.31010150  0.43899949  0.56620170    -0.39600
C1119       C  0.28087173  0.38053649  0.86654699    -0.13300
C1120       C  0.30169202  0.36904644  0.88188985     0.17100
C1121       C  0.29043041  0.33330764  0.88296103     0.03400
C1122       C  0.25931189  0.30987094  0.86657849    -0.11800
C1123       C  0.23908800  0.32172874  0.85010390    -0.02900
C1124       C  0.24968854  0.35728553  0.85101793     0.02600
C1125       C  0.33335777  0.39482417  0.89973952     0.09500
N1126       N  0.31037472  0.32053874  0.90019641     0.65800
H1127       H  0.25114483  0.28256542  0.86623688     0.18700
N1128       N  0.22825380  0.37004039  0.83799131     0.76300
H1129       H  0.28853818  0.40773180  0.86737488     0.10200
C1130       C  0.35903911  0.42313476  0.88005875     0.03900
C1131       C  0.38814544  0.44783699  0.89859462    -0.04800
C1132       C  0.39158827  0.44470914  0.93641971    -0.23200
C1133       C  0.36501114  0.41765642  0.95634395     0.13200
C1134       C  0.33613455  0.39296449  0.93788860    -0.12300
N1135       N  0.35647169  0.42643708  0.84118595     0.64900
H1136       H  0.40884025  0.46828461  0.88313824     0.12700
N1137       N  0.36725637  0.41485944  0.99536144     0.61500
H1138       H  0.31568090  0.37237973  0.95344867     0.08900
O1139       O  0.21451353  0.38013767  0.86129054    -0.40000
O1140       O  0.23065391  0.37988934  0.80504839    -0.39100
O1141       O  0.30280447  0.30827501  0.93232716    -0.39100
O1142       O  0.32946700  0.31393200  0.88067743    -0.36900
O1143       O  0.35598735  0.42941204  0.01631385    -0.37800
O1144       O  0.37339165  0.39230643  0.00839510    -0.33900
O1145       O  0.34971645  0.44885022  0.82905361    -0.35300
O1146       O  0.36840578  0.41301048  0.81955216    -0.39600
C1147       C  0.09489300  0.44427891  0.61188149    -0.13300
C1148       C  0.07133497  0.41490129  0.63132425     0.17100
C1149       C  0.03731839  0.40715589  0.63406363     0.03400
C1150       C  0.02667482  0.42702977  0.61469619    -0.11800
C1151       C  0.04946579  0.45490607  0.59254887    -0.02900
C1152       C  0.08434351  0.46460844  0.59277355     0.02600
C1153       C  0.08308065  0.39345723  0.64975660     0.09500
N1154       N  0.01336750  0.37945445  0.65664026     0.65800
H1155       H  0.99998934  0.41979361  0.61608701     0.18700
N1156       N  0.10912543  0.49412013  0.57300208     0.76300
H1157       H  0.12147788  0.45107491  0.61104032     0.10200
C1158       C  0.07621257  0.36131222  0.63518245     0.03900
C1159       C  0.08885986  0.34229542  0.65311466    -0.04800
C1160       C  0.10845669  0.35519789  0.68511048    -0.23200
C1161       C  0.11543721  0.38738416  0.69947290     0.13200
C1162       C  0.10255693  0.40617450  0.68181724    -0.12300
N1163       N  0.05794061  0.34850006  0.60138073     0.64900
H1164       H  0.08383314  0.31771168  0.64184865     0.12700
N1165       N  0.13595611  0.40147860  0.73169901     0.61500
H1166       H  0.10811257  0.43100453  0.69288417     0.08900
O1167       O  0.12160982  0.48988263  0.54374410    -0.40000
O1168       O  0.12426315  0.52297952  0.58917010    -0.39100
O1169       O  0.00787003  0.38601409  0.68888800    -0.39100
O1170       O  0.99206196  0.35129585  0.64176173    -0.36900
O1171       O  0.16782022  0.42037952  0.72836351    -0.37800
O1172       O  0.12190354  0.40217932  0.76140260    -0.33900
O1173       O  0.07442299  0.35506885  0.57165965    -0.35300
O1174       O  0.02749044  0.32404408  0.60216849    -0.39600
C1175       C  0.08763310  0.35716276  0.88919553    -0.13300
C1176       C  0.05435996  0.33579272  0.90170200     0.17100
C1177       C  0.03656173  0.30085782  0.89030172     0.03400
C1178       C  0.05259013  0.28812067  0.86710354    -0.11800
C1179       C  0.08587601  0.30991383  0.85458246    -0.02900
C1180       C  0.10353343  0.34470280  0.86614433     0.02600
C1181       C  0.03867467  0.35249224  0.92317972     0.09500
N1182       N  0.00236609  0.27806692  0.90181978     0.65800
H1183       H  0.03889644  0.26134063  0.85839742     0.18700
N1184       N  0.13781309  0.36793436  0.85505210     0.76300
H1185       H  0.10116287  0.38436220  0.89628977     0.10200
C1186       C  0.05659544  0.37486700  0.95275420     0.03900
C1187       C  0.04745517  0.39876076  0.96507200    -0.04800
C1188       C  0.01940288  0.39964545  0.94991597    -0.23200
C1189       C  0.99935133  0.37490159  0.92291254     0.13200
C1190       C  0.00964824  0.35223221  0.90915729    -0.12300
N1191       N  0.08429446  0.37368680  0.97041431     0.64900
H1192       H  0.06211861  0.41641214  0.98706617     0.12700
N1193       N  0.96943974  0.37343519  0.90786187     0.61500
H1194       H  0.99594927  0.33579055  0.88602793     0.08900
O1195       O  0.15984244  0.38438933  0.87957761    -0.40000
O1196       O  0.14367290  0.37885106  0.82234599    -0.39100
O1197       O  0.97830831  0.26980200  0.87915889    -0.39100
O1198       O  0.99728692  0.25967611  0.93006179    -0.36900
O1199       O  0.97184848  0.39045439  0.87917496    -0.37800
O1200       O  0.94053528  0.34930590  0.91757903    -0.33900
O1201       O  0.11416236  0.39900953  0.96751574    -0.35300
O1202       O  0.07791270  0.35150586  0.99522865    -0.39600
C1203       C  0.13407015  0.56821228  0.15277386    -0.13300
C1204       C  0.16623073  0.57951256  0.13673811     0.17100
C1205       C  0.16690293  0.57307604  0.09860375     0.03400
C1206       C  0.13642944  0.55726568  0.07752554    -0.11800
C1207       C  0.10416970  0.54655692  0.09327897    -0.02900
C1208       C  0.10349233  0.55188427  0.13187002     0.02600
C1209       C  0.19813664  0.59611385  0.16072003     0.09500
N1210       N  0.19799662  0.58024719  0.08109872     0.65800
H1211       H  0.13815428  0.55299782  0.04842800     0.18700
N1212       N  0.07194667  0.53950698  0.15094745     0.76300
H1213       H  0.13258195  0.57184178  0.18209170     0.10200
C1214       C  0.22453301  0.63081947  0.15633300     0.03900
C1215       C  0.25364599  0.64507162  0.17949111    -0.04800
C1216       C  0.25741547  0.62608954  0.20828822    -0.23200
C1217       C  0.23065782  0.59136777  0.21304785     0.13200
C1218       C  0.20173352  0.57708381  0.18955588    -0.12300
N1219       N  0.22135539  0.65285679  0.13006010     0.64900
H1220       H  0.27318635  0.67178530  0.17549995     0.12700
N1221       N  0.23242754  0.56954209  0.24074013     0.61500
H1222       H  0.18192317  0.55050898  0.19369183     0.08900
O1223       O  0.06179484  0.56038284  0.15899155    -0.40000
O1224       O  0.05951866  0.51106885  0.16778869    -0.39100
O1225       O  0.20649801  0.55727678  0.08119943    -0.39100
O1226       O  0.21105847  0.60413269  0.05755551    -0.36900
O1227       O  0.21072127  0.55881066  0.26632604    -0.37800
O1228       O  0.24715246  0.55264409  0.23326720    -0.33900
O1229       O  0.20581685  0.66860068  0.13924083    -0.35300
O1230       O  0.24152324  0.66386839  0.10306288    -0.39600
C1231       C  0.22669403  0.59576014  0.34849511    -0.13300
C1232       C  0.19996116  0.60233149  0.34080124     0.17100
C1233       C  0.20441041  0.62450084  0.31075714     0.03400
C1234       C  0.23392744  0.63782287  0.28848948    -0.11800
C1235       C  0.26016523  0.63025770  0.29538116    -0.02900
C1236       C  0.25648048  0.60952454  0.32665490     0.02600
C1237       C  0.16825293  0.58590697  0.36476882     0.09500
N1238       N  0.18037062  0.63569498  0.30369139     0.65800
H1239       H  0.23660210  0.65484138  0.26589240     0.18700
N1240       N  0.28152082  0.60006288  0.33555241     0.76300
H1241       H  0.22420231  0.57917521  0.37148022     0.10200
C1242       C  0.13579539  0.56112633  0.35109074     0.03900
C1243       C  0.10735514  0.54494858  0.37485611    -0.04800
C1244       C  0.10961922  0.55260017  0.41285877    -0.23200
C1245       C  0.14221979  0.57774218  0.42647457     0.13200
C1246       C  0.17082537  0.59356116  0.40269219    -0.12300
N1247       N  0.13122929  0.55091053  0.31327473     0.64900
H1248       H  0.08312263  0.52593846  0.36314439     0.12700
N1249       N  0.14694529  0.58820983  0.46420816     0.61500
H1250       H  0.19535948  0.61236212  0.41400927     0.08900
O1251       O  0.27542164  0.57005000  0.32744939    -0.40000
O1252       O  0.30279944  0.61629209  0.36080286    -0.39100
O1253       O  0.18364416  0.66185624  0.32064777    -0.39100
O1254       O  0.16354358  0.62673612  0.27402874    -0.36900
O1255       O  0.16136566  0.57727440  0.48578781    -0.37800
O1256       O  0.14476389  0.61431596  0.47332600    -0.33900
O1257       O  0.13630834  0.52672125  0.30353134    -0.35300
O1258       O  0.11339385  0.55865719  0.29290985    -0.39600
C1259       C  0.36504562  0.59547254  0.15512159    -0.13300
C1260       C  0.39959873  0.60588945  0.16153637     0.17100
C1261       C  0.41642658  0.63052618  0.19004345    -0.03600
C1262       C  0.39849427  0.64268426  0.21166232    -0.11800
C1263       C  0.36384496  0.63183510  0.20547970    -0.02900
C1264       C  0.34740983  0.60832413  0.17607092     0.02600
C1265       C  0.41709907  0.59152198  0.13707384     0.09500
N1266       N  0.45227724  0.64557522  0.19595278     0.65800
H1267       H  0.41217600  0.66165008  0.23297007     0.18700
N1268       N  0.31216154  0.59539163  0.16816121     0.76300
H1269       H  0.35130231  0.57678677  0.13359366     0.10200
C1270       C  0.43548226  0.57581001  0.15096402     0.03900
C1271       C  0.45053739  0.56242492  0.12669841    -0.04800
C1272       C  0.44734915  0.56292532  0.08803678    -0.23200
C1273       C  0.42800533  0.57763857  0.07419603     0.13200
C1274       C  0.41366540  0.59183904  0.09843917    -0.12300
N1275       N  0.43731088  0.57081081  0.18959894     0.64900
H1276       H  0.46427152  0.55064976  0.13861232     0.12700
N1277       N  0.42159557  0.57761821  0.03565764     0.61500
H1278       H  0.39931387  0.60304835  0.08675080     0.08900
O1279       O  0.29103149  0.56488111  0.17754763    -0.40000
O1280       O  0.30416168  0.60919056  0.14259908    -0.39100
O1281       O  0.47246997  0.66867871  0.17409750    -0.39100
O1282       O  0.46296614  0.64342141  0.22743733    -0.36900
O1283       O  0.39392560  0.55391538  0.02246565    -0.37800
O1284       O  0.43871542  0.60501041  0.01742991    -0.33900
O1285       O  0.41236012  0.54553671  0.20497707    -0.35300
O1286       O  0.46620546  0.58417752  0.20492411    -0.39600
C1287       C  0.37656323  0.58786111  0.31508712    -0.13300
C1288       C  0.39796020  0.60953510  0.34324787     0.17100
C1289       C  0.40270522  0.64331598  0.34562395     0.03400
C1290       C  0.38591887  0.65417817  0.32073908    -0.11800
C1291       C  0.36444360  0.63248932  0.29261450    -0.02900
C1292       C  0.35983597  0.59870546  0.29010687     0.02600
C1293       C  0.41637344  0.59654102  0.36756243     0.09500
N1294       N  0.42576791  0.66773688  0.37176490     0.65800
H1295       H  0.39031641  0.68029091  0.32306154     0.18700
N1296       N  0.33761687  0.57443780  0.26328145     0.76300
H1297       H  0.37250849  0.56188376  0.31262161     0.10200
C1298       C  0.41197736  0.59258053  0.40624877     0.03900
C1299       C  0.42837107  0.57808144  0.42685735    -0.04800
C1300       C  0.44866623  0.56616728  0.40995032    -0.23200
C1301       C  0.45283445  0.57015185  0.37112864     0.13200
C1302       C  0.43708189  0.58527669  0.35078877    -0.12300
N1303       N  0.38900571  0.60061226  0.42490084     0.64900
H1304       H  0.42412475  0.57505991  0.45631173     0.12700
N1305       N  0.47277836  0.55880077  0.35144477     0.61500
H1306       H  0.44070111  0.58776051  0.32120232     0.08900
O1307       O  0.34995861  0.56293712  0.23975783    -0.40000
O1308       O  0.30612302  0.55727177  0.26992310    -0.39100
O1309       O  0.45672963  0.68615440  0.36303282    -0.39100
O1310       O  0.41396409  0.67797830  0.39720177    -0.36900
O1311       O  0.45798418  0.52974868  0.33564554    -0.37800
O1312       O  0.50285383  0.58062300  0.34226934    -0.33900
O1313       O  0.35779019  0.57806721  0.42607576    -0.35300
O1314       O  0.40071409  0.62477135  0.44826661    -0.39600
C1315       C  0.42413518  0.85709965  0.15044348    -0.13300
C1316       C  0.41048006  0.82445872  0.13342591     0.17100
C1317       C  0.41225043  0.82408211  0.09436951     0.03400
C1318       C  0.42817715  0.85535984  0.07404376    -0.11800
C1319       C  0.44182078  0.88805966  0.09105124    -0.02900
C1320       C  0.43909095  0.88829496  0.13007545     0.02600
C1321       C  0.39302463  0.79182000  0.15707209     0.09500
N1322       N  0.39570093  0.79230379  0.07434816     0.65800
H1323       H  0.42887336  0.85381488  0.04430798     0.18700
N1324       N  0.45051885  0.91986615  0.14981186     0.76300
H1325       H  0.42283350  0.85849055  0.18015076     0.10200
C1326       C  0.40104719  0.76484770  0.15552394     0.03900
C1327       C  0.38381723  0.73527904  0.17830347    -0.04800
C1328       C  0.35992018  0.73221268  0.20498782    -0.23200
C1329       C  0.35236722  0.75944723  0.20711520     0.13200
C1330       C  0.36849622  0.78828899  0.18325524    -0.12300
N1331       N  0.42915762  0.76851904  0.13418307     0.64900
H1332       H  0.39082484  0.71536812  0.17667643     0.12700
N1333       N  0.32773196  0.75816838  0.23256425     0.61500
H1334       H  0.36165431  0.80829074  0.18529573     0.08900
O1335       O  0.47837918  0.93282624  0.16722572    -0.40000
O1336       O  0.42947039  0.92976993  0.15712677    -0.39100
O1337       O  0.36402187  0.77820519  0.06860065    -0.39100
O1338       O  0.41331800  0.78430886  0.05402794    -0.36900
O1339       O  0.29672836  0.74278533  0.22319380    -0.37800
O1340       O  0.33751690  0.78037243  0.25801027    -0.33900
O1341       O  0.45895563  0.78730813  0.14656739    -0.35300
O1342       O  0.42412008  0.74601226  0.11017190    -0.39600
C1343       C  0.41079239  0.78800227  0.31440031    -0.13300
C1344       C  0.39098890  0.79201791  0.34179341     0.17100
C1345       C  0.35629159  0.76572883  0.34439697     0.03400
C1346       C  0.34278348  0.73658585  0.32075678    -0.11800
C1347       C  0.36236924  0.73299473  0.29283044    -0.02900
C1348       C  0.39713323  0.75915613  0.29032490     0.02600
C1349       C  0.40687282  0.82462203  0.36543420     0.09500
N1350       N  0.33343367  0.76942830  0.36855094     0.65800
H1351       H  0.31608213  0.71717939  0.32322254     0.18700
N1352       N  0.41960128  0.75640400  0.26472705     0.76300
H1353       H  0.43745691  0.80745905  0.31182464     0.10200
C1354       C  0.40868507  0.82439782  0.40447656     0.03900
C1355       C  0.42436597  0.85576974  0.42470902    -0.04800
C1356       C  0.43961515  0.88840773  0.40737937    -0.23200
C1357       C  0.43832361  0.88847775  0.36823666     0.13200
C1358       C  0.42211494  0.85713636  0.34810053    -0.12300
N1359       N  0.39698989  0.79279052  0.42418851     0.64900
H1360       H  0.42532126  0.85441287  0.45444861     0.12700
N1361       N  0.45322451  0.92011072  0.34807398     0.61500
H1362       H  0.42151381  0.85829648  0.31830659     0.08900
O1363       O  0.43272702  0.73813536  0.27312491    -0.40000
O1364       O  0.43362476  0.77924953  0.24021145    -0.39100
O1365       O  0.32055965  0.78741851  0.35812456    -0.39100
O1366       O  0.31891885  0.74754421  0.39384205    -0.36900
O1367       O  0.48275776  0.93188547  0.33490065    -0.37800
O1368       O  0.43434353  0.93132261  0.33612536    -0.33900
O1369       O  0.41698646  0.78097119  0.42820548    -0.35300
O1370       O  0.37216805  0.78300083  0.44597737    -0.39600
loop_ 
_geom_bond_atom_site_label_1 
_geom_bond_atom_site_label_2 
_geom_bond_distance 
_geom_bond_site_symmetry_2 
_ccdc_geom_bond_type 
C1            H2   1.108       .  S
C1            C7   1.560       .  S
C1            C6   1.565       .  S
C1            C5   1.567       .  S
C3            H4   1.107       .  S
C3            C9   1.556       .  S
C3            C8   1.556       .  S
C3           C10   1.556       .  S
C5            C8   1.388       .  D
C5         C1328   1.525       .  S
C6            C9   1.390       .  D
C6         C1216   1.527       .  S
C7           C10   1.389       .  D
C7         C1263   1.524       .  S
C8         C1347   1.525       .  S
C9         C1235   1.522       .  S
C10        C1291   1.515       .  S
N11          C16   1.345       .  A
N11          C15   1.348       .  A
N11          H43   1.042       .  S
N12          C19   1.350       .  A
N12          C20   1.348       .  A
N13          C18   1.349       .  A
N13          C17   1.348       .  A
N13          H44   1.043       .  S
N14          C21   1.351       .  A
N14          C22   1.352       .  A
C15          C23   1.385       .  A
C15          C31   1.408       .  A
C16          C32   1.404       .  A
C16          C24   1.388       .  A
C17          C25   1.386       .  A
C17          C34   1.408       .  A
C18          C33   1.407       .  A
C18          C26   1.386       .  A
C19          C31   1.410       .  A
C19          C27   1.387       .  A
C20          C34   1.407       .  A
C20          C28   1.386       .  A
C21          C29   1.385       .  A
C21          C32   1.409       .  A
C22          C30   1.386       .  A
C22          C33   1.411       .  A
C23          C24   1.376       .  A
C23          H35   1.082       .  S
C24          H36   1.082       .  S
C25          C26   1.374       .  A
C25          H37   1.082       .  S
C26          H38   1.081       .  S
C27          C28   1.369       .  A
C27          H39   1.082       .  S
C28          H40   1.082       .  S
C29          C30   1.370       .  A
C29          H41   1.083       .  S
C30          H42   1.082       .  S
C31        C1095   1.478       .  S
C32        C1123   1.475       .  S
C33        C1179   1.481       .  S
C34        C1160   1.473       .  S
N45          C50   1.352       .  A
N45          C49   1.353       .  A
N45          H77   1.043       .  S
N46          C53   1.345       .  A
N46          C54   1.345       .  A
N47          C52   1.351       .  A
N47          C51   1.352       .  A
N47          H78   1.041       .  S
N48          C55   1.346       .  A
N48          C56   1.346       .  A
C49          C57   1.384       .  A
C49          C65   1.406       .  A
C50          C66   1.416       .  A
C50          C58   1.391       .  A
C51          C59   1.384       .  A
C51          C68   1.407       .  A
C52          C67   1.417       .  A
C52          C60   1.391       .  A
C53          C65   1.399       .  A
C53          C61   1.385       .  A
C54          C68   1.403       .  A
C54          C62   1.387       .  A
C55          C63   1.388       .  A
C55          C66   1.406       .  A
C56          C64   1.384       .  A
C56          C67   1.403       .  A
C57          C58   1.367       .  A
C57          H69   1.082       .  S
C58          H70   1.081       .  S
C59          C60   1.367       .  A
C59          H71   1.082       .  S
C60          H72   1.080       .  S
C61          C62   1.372       .  A
C61          H73   1.082       .  S
C62          H74   1.082       .  S
C63          C64   1.374       .  A
C63          H75   1.083       .  S
C64          H76   1.082       .  S
C65        C1067   1.475       .  S
C66        C1011   1.478       .  S
C67         C992   1.480       .  S
C68        C1048   1.473       .  S
N79          C84   1.349       .  A
N79          C83   1.352       .  A
N79         H111   1.018       .  S
N80          C87   1.352       .  A
N80          C88   1.351       .  A
N81          C86   1.351       .  A
N81          C85   1.350       .  A
N81         H112   1.016       .  S
N82          C89   1.352       .  A
N82          C90   1.352       .  A
C83          C91   1.386       .  A
C83          C99   1.411       .  A
C84         C100   1.406       .  A
C84          C92   1.387       .  A
C85          C93   1.386       .  A
C85         C102   1.410       .  A
C86         C101   1.406       .  A
C86          C94   1.387       .  A
C87          C99   1.413       .  A
C87          C95   1.387       .  A
C88         C102   1.411       .  A
C88          C96   1.386       .  A
C89          C97   1.385       .  A
C89         C100   1.409       .  A
C90          C98   1.387       .  A
C90         C101   1.412       .  A
C91          C92   1.377       .  A
C91         H103   1.083       .  S
C92         H104   1.082       .  S
C93          C94   1.377       .  A
C93         H105   1.083       .  S
C94         H106   1.082       .  S
C95          C96   1.373       .  A
C95         H107   1.082       .  S
C96         H108   1.082       .  S
C97          C98   1.371       .  A
C97         H109   1.082       .  S
C98         H110   1.083       .  S
C99         C880   1.487       .  S
C100        C908   1.480       .  S
C101        C964   1.479       .  S
C102        C927   1.482       .  S
O113        C129   1.278       .  A
O113       Zn119   2.045       .  S
C114       C1207   1.528       .  S
C114        O130   1.282       .  A
C114        O127   1.278       .  A
O115        C128   1.273   1_655  A
O115       Cd122   2.055       .  S
O116        C134   1.278       .  A
O116       Cd125   2.084       .  S
O117        C131   1.274       .  A
O117       Cd121   2.055   1_554  S
O118        C129   1.272       .  A
O118       Cd121   2.024   1_455  S
Zn119       O130   2.103   1_556  S
Zn119       O132   2.045       .  S
Zn119       O124   1.971   1_456  S
O120        C131   1.282       .  A
O120       Cd125   2.082       .  S
Cd121       O123   2.121       .  S
Cd121       O124   2.002   1_556  S
Cd122       O126   2.134       .  S
Cd122       O135   2.055   1_556  S
Cd122       O124   2.006   1_556  S
O123        C133   1.277       .  A
O124       Cd125   2.017       .  S
Cd125       O127   2.129   1_655  S
O126        C133   1.281       .  A
C128       C1188   1.477       .  S
C128        O132   1.282       .  A
C129       C1076   1.463       .  S
C131        C899   1.483       .  S
C133        C843   1.525       .  S
C134        C815   1.480       .  S
C134        O135   1.277       .  A
O136        C152   1.280       .  A
O136       Zn142   2.101       .  S
C137       C1020   1.472       .  S
C137        O153   1.279       .  A
C137        O150   1.270   1_455  A
O138        C151   1.272       .  A
O138       Cd145   2.023   1_455  S
O139        C157   1.277       .  A
O139       Cd148   2.121       .  S
O140        C154   1.277       .  A
O140       Cd144   2.074       .  S
O141        C152   1.279       .  A
O141       Cd144   2.118   1_455  S
Zn142       O153   2.018       .  S
Zn142       O155   2.058       .  S
Zn142       O147   1.979   1_455  S
O143        C154   1.274       .  A
O143       Cd148   2.056       .  S
Cd144       O146   2.080       .  S
Cd144       O147   1.999       .  S
Cd145       O149   2.053       .  S
Cd145       O158   2.115       .  S
Cd145       O147   1.990       .  S
O146        C156   1.280       .  A
O147       Cd148   2.008       .  S
Cd148       O150   2.024       .  S
O149        C156   1.274       .  A
C151       C1151   1.479       .  S
C151        O155   1.280       .  A
C152       C1244   1.527       .  S
C154        C871   1.481       .  S
C156        C759   1.485       .  S
C157        C796   1.518       .  S
C157        O158   1.278       .  A
N159        C164   1.349       .  A
N159        C163   1.347       .  A
N159        H191   1.038       .  S
N160        C167   1.344       .  A
N160        C168   1.348       .  A
N161        C166   1.344       .  A
N161        C165   1.351       .  A
N161        H192   1.036       .  S
N162        C169   1.355       .  A
N162        C170   1.353       .  A
C163        C171   1.385       .  A
C163        C179   1.406       .  A
C164        C180   1.404       .  A
C164        C172   1.386       .  A
C165        C173   1.382       .  A
C165        C182   1.409       .  A
C166        C181   1.406       .  A
C166        C174   1.390       .  A
C167        C179   1.405       .  A
C167        C175   1.387       .  A
C168        C182   1.407       .  A
C168        C176   1.386       .  A
C169        C177   1.385       .  A
C169        C180   1.414       .  A
C170        C178   1.386       .  A
C170        C181   1.413       .  A
C171        C172   1.375       .  A
C171        H183   1.082       .  S
C172        H184   1.079       .  S
C173        C174   1.379       .  A
C173        H185   1.082       .  S
C174        H186   1.082       .  S
C175        C176   1.372       .  A
C175        H187   1.082       .  S
C176        H188   1.082       .  S
C177        C178   1.372       .  A
C177        H189   1.083       .  S
C178        H190   1.082       .  S
C179        C731   1.465       .  S
C180        C703   1.486       .  S
C181        C768   1.478       .  S
C182        C824   1.480       .  S
N193        C198   1.348       .  A
N193        C197   1.351       .  A
N193        H225   1.038       .  S
N194        C201   1.353       .  A
N194        C202   1.353       .  A
N195        C200   1.350       .  A
N195        C199   1.348       .  A
N195        H226   1.039       .  S
N196        C203   1.353       .  A
N196        C204   1.353       .  A
C197        C205   1.388       .  A
C197        C213   1.413       .  A
C198        C214   1.408       .  A
C198        C206   1.385       .  A
C199        C207   1.384       .  A
C199        C216   1.405       .  A
C200        C215   1.410       .  A
C200        C208   1.388       .  A
C201        C213   1.416       .  A
C201        C209   1.387       .  A
C202        C216   1.412       .  A
C202        C210   1.385       .  A
C203        C211   1.385       .  A
C203        C214   1.411       .  A
C204        C212   1.387       .  A
C204        C215   1.416       .  A
C205        C206   1.377       .  A
C205        H217   1.082       .  S
C206        H218   1.082       .  S
C207        C208   1.376       .  A
C207        H219   1.082       .  S
C208        H220   1.081       .  S
C209        C210   1.372       .  A
C209        H221   1.082       .  S
C210        H222   1.082       .  S
C211        C212   1.372       .  A
C211        H223   1.082       .  S
C212        H224   1.083       .  S
C213        C675   1.484       .  S
C214        C647   1.482       .  S
C215        C619   1.481       .  S
C216        C600   1.483       .  S
N227        C232   1.355       .  A
N227        C231   1.353       .  A
N227        H259   1.041       .  S
N228        C235   1.347       .  A
N228        C236   1.349       .  A
N229        C234   1.353       .  A
N229        C233   1.353       .  A
N229        H260   1.039       .  S
N230        C237   1.348       .  A
N230        C238   1.346       .  A
C231        C239   1.389       .  A
C231        C247   1.413       .  A
C232        C248   1.412       .  A
C232        C240   1.387       .  A
C233        C241   1.390       .  A
C233        C250   1.418       .  A
C234        C249   1.410       .  A
C234        C242   1.385       .  A
C235        C247   1.403       .  A
C235        C243   1.386       .  A
C236        C250   1.406       .  A
C236        C244   1.385       .  A
C237        C245   1.385       .  A
C237        C248   1.403       .  A
C238        C246   1.387       .  A
C238        C249   1.404       .  A
C239        C240   1.366       .  A
C239        H251   1.082       .  S
C240        H252   1.082       .  S
C241        C242   1.368       .  A
C241        H253   1.082       .  S
C242        H254   1.082       .  S
C243        C244   1.371       .  A
C243        H255   1.082       .  S
C244        H256   1.083       .  S
C245        C246   1.370       .  A
C245        H257   1.083       .  S
C246        H258   1.082       .  S
C247        C535   1.477       .  S
C248        C479   1.479       .  S
C249        C507   1.476       .  S
C250        C563   1.482       .  S
O261        C277   1.278       .  A
O261       Zn267   2.032       .  S
C262       C1356   1.527       .  S
C262        O278   1.281       .  A
C262        O275   1.280       .  A
O263        C276   1.271       .  A
O263       Cd270   2.028   1_565  S
O264        C282   1.282       .  A
O264       Cd273   2.095       .  S
O265        C279   1.272       .  A
O265       Cd269   2.040       .  S
O266        C277   1.272   1_545  A
O266       Cd269   2.040       .  S
Zn267       O278   2.090       .  S
Zn267       O280   2.047       .  S
Zn267       O272   1.967   1_565  S
O268        C279   1.280       .  A
O268       Cd273   2.090       .  S
Cd269       O271   2.113       .  S
Cd269       O272   1.998       .  S
Cd270       O274   2.096       .  S
Cd270       O283   2.034       .  S
Cd270       O272   1.992       .  S
O271        C281   1.278       .  A
O272       Cd273   2.012       .  S
Cd273       O275   2.133   1_545  S
O274        C281   1.273       .  A
C276        C516   1.466       .  S
C276        O280   1.279       .  A
C277        C983   1.472       .  S
C279        C656   1.477       .  S
C281        C460   1.508       .  S
C282        C712   1.483       .  S
C282        O283   1.271       .  A
O284        C300   1.281       .  A
O284       Zn290   2.091       .  S
C285       C1104   1.471       .  S
C285        O301   1.281       .  A
C285        O298   1.272       .  A
O286        C299   1.273       .  A
O286       Cd293   2.041       .  S
O287        C305   1.275       .  A
O287       Cd296   2.106       .  S
O288        C302   1.277       .  A
O288       Cd292   2.060       .  S
O289        C300   1.276       .  A
O289       Cd292   2.102       .  S
Zn290       O301   2.051       .  S
Zn290       O303   2.040       .  S
Zn290       O295   1.968       .  S
O291        C302   1.274       .  A
O291       Cd296   2.054       .  S
Cd292       O294   2.069       .  S
Cd292       O295   2.004       .  S
Cd293       O297   2.053       .  S
Cd293       O306   2.124       .  S
Cd293       O295   1.989       .  S
O294        C304   1.275       .  A
O295       Cd296   2.003       .  S
Cd296       O298   2.036       .  S
O297        C304   1.276       .  A
C299        C488   1.468       .  S
C299        O303   1.278       .  A
C300       C1300   1.518       .  S
C302        C628   1.477       .  S
C304        C936   1.476       .  S
C305        C423   1.508       .  S
C305        O306   1.279       .  A
O307        C323   1.281       .  A
O307       Zn313   2.098   1_554  S
C308       C1039   1.468       .  S
C308        O324   1.278       .  A
C308        O321   1.274       .  A
O309        C322   1.273   1_545  A
O309       Cd316   2.061       .  S
O310        C328   1.279       .  A
O310       Cd319   2.116       .  S
O311        C325   1.276       .  A
O311       Cd315   2.067       .  S
O312        C323   1.278       .  A
O312       Cd315   2.128   1_565  S
Zn313       O324   2.019       .  S
Zn313       O326   2.038       .  S
Zn313       O318   1.965   1_566  S
O314        C325   1.277       .  A
O314       Cd319   2.084   1_554  S
Cd315       O317   2.055       .  S
Cd315       O318   2.010       .  S
Cd316       O320   2.046   1_556  S
Cd316       O329   2.114       .  S
Cd316       O318   2.010   1_556  S
O317        C327   1.277       .  A
O318       Cd319   2.007   1_554  S
Cd319       O321   2.038   1_545  S
O320        C327   1.275       .  A
C322        C572   1.472       .  S
C322        O326   1.277       .  A
C323       C1319   1.529       .  S
C325        C684   1.480       .  S
C327        C740   1.471       .  S
C328        C395   1.516       .  S
C328        O329   1.276       .  A
O330        C346   1.278       .  A
O330       Zn336   2.038       .  S
C331       C1272   1.527       .  S
C331        O347   1.281       .  A
C331        O344   1.279       .  A
O332        C345   1.272       .  A
O332       Cd339   2.030       .  S
O333        C351   1.280       .  A
O333       Cd342   2.082       .  S
O334        C348   1.273       .  A
O334       Cd338   2.045   1_554  S
O335        C346   1.269       .  A
O335       Cd338   2.007       .  S
Zn336       O347   2.104   1_556  S
Zn336       O349   2.059       .  S
Zn336       O341   1.980   1_556  S
O337        C348   1.279       .  A
O337       Cd342   2.082       .  S
Cd338       O340   2.120       .  S
Cd338       O341   1.992   1_556  S
Cd339       O343   2.111       .  S
Cd339       O352   2.032   1_556  S
Cd339       O341   1.992   1_556  S
O340        C350   1.276       .  A
O341       Cd342   2.003       .  S
Cd342       O344   2.117       .  S
O343        C350   1.276       .  A
C345        C544   1.473       .  S
C345        O349   1.281       .  A
C346       C1132   1.452       .  S
C348        C591   1.481       .  S
C350        C376   1.505       .  S
C351        C955   1.482       .  S
C351        O352   1.271       .  A
C353        H354   1.105       .  S
C353        C359   1.555       .  S
C353        C358   1.558       .  S
C353        C357   1.558       .  S
C355        H356   1.111       .  S
C355        C361   1.560       .  S
C355        C360   1.554       .  S
C355        C362   1.558       .  S
C357        C360   1.386       .  D
C357        C451   1.507       .  S
C358        C361   1.389       .  D
C358        C787   1.526       .  S
C359        C362   1.386       .  D
C359        C432   1.518       .  S
C360        C404   1.523       .  S
C361        C852   1.518       .  S
C362        C367   1.518       .  S
C363        C364   1.404       .  A
C363        C368   1.413       .  A
C363        H373   1.084       .  S
C364        C365   1.410       .  A
C364        C369   1.506       .  S
C365        C366   1.415       .  A
C365        N370   1.429       .  S
C366        C367   1.412       .  A
C366        H371   1.084       .  S
C367        C368   1.419       .  A
C368        N372   1.427       .  S
C369        C374   1.414       .  A
C369        C378   1.405       .  A
N370        O385   1.261       .  A
N370        O386   1.262       .  A
N372        O383   1.261       .  A
N372        O384   1.262       .  A
C374        C375   1.412       .  A
C374        N379   1.428       .  S
C375        C376   1.407       .  A
C375        H380   1.084       .  S
C376        C377   1.416       .  A
C377        C378   1.413       .  A
C377        N381   1.428       .  S
C378        H382   1.084       .  S
N379        O389   1.261       .  A
N379        O390   1.262       .  A
N381        O387   1.262       .  A
N381        O388   1.262       .  A
C391        C392   1.409       .  A
C391        C396   1.415       .  A
C391        H401   1.082       .  S
C392        C393   1.419       .  A
C392        C397   1.520       .  S
C393        C394   1.412       .  A
C393        N398   1.428       .  S
C394        C395   1.408       .  A
C394        H399   1.084       .  S
C395        C396   1.420       .  A
C396        N400   1.428       .  S
C397        C402   1.418       .  A
C397        C406   1.408       .  A
N398        O413   1.262       .  A
N398        O414   1.262       .  A
N400        O411   1.262       .  A
N400        O412   1.262       .  A
C402        C403   1.413       .  A
C402        N407   1.428       .  S
C403        C404   1.408       .  A
C403        H408   1.083       .  S
C404        C405   1.421       .  A
C405        C406   1.415       .  A
C405        N409   1.428       .  S
C406        H410   1.083       .  S
N407        O417   1.262       .  A
N407        O418   1.262       .  A
N409        O415   1.262       .  A
N409        O416   1.262       .  A
C419        C420   1.406       .  A
C419        C424   1.413       .  A
C419        H429   1.084       .  S
C420        C421   1.413       .  A
C420        C425   1.509       .  S
C421        C422   1.412       .  A
C421        N426   1.428       .  S
C422        C423   1.408       .  A
C422        H427   1.084       .  S
C423        C424   1.418       .  A
C424        N428   1.428       .  S
C425        C430   1.414       .  A
C425        C434   1.403       .  A
N426        O441   1.262       .  A
N426        O442   1.262       .  A
N428        O439   1.262       .  A
N428        O440   1.262       .  A
C430        C431   1.417       .  A
C430        N435   1.428       .  S
C431        C432   1.411       .  A
C431        H436   1.083       .  S
C432        C433   1.418       .  A
C433        C434   1.411       .  A
C433        N437   1.428       .  S
C434        H438   1.084       .  S
N435        O445   1.262       .  A
N435        O446   1.262       .  A
N437        O443   1.262       .  A
N437        O444   1.262       .  A
C447        C448   1.407       .  A
C447        C452   1.409       .  A
C447        H457   1.083       .  S
C448        C449   1.418       .  A
C448        C453   1.511       .  S
C449        C450   1.411       .  A
C449        N454   1.428       .  S
C450        C451   1.406       .  A
C450        H455   1.084       .  S
C451        C452   1.415       .  A
C452        N456   1.428       .  S
C453        C458   1.417       .  A
C453        C462   1.406       .  A
N454        O469   1.262       .  A
N454        O470   1.262       .  A
N456        O467   1.262       .  A
N456        O468   1.262       .  A
C458        C459   1.409       .  A
C458        N463   1.429       .  S
C459        C460   1.407       .  A
C459        H464   1.084       .  S
C460        C461   1.420       .  A
C461        C462   1.411       .  A
C461        N465   1.429       .  S
C462        H466   1.083       .  S
N463        O473   1.262       .  A
N463        O474   1.262       .  A
N465        O471   1.262       .  A
N465        O472   1.262       .  A
C475        C476   1.398       .  A
C475        C480   1.391       .  A
C475        H485   1.084       .  S
C476        C477   1.412       .  A
C476        C481   1.473       .  S
C477        C478   1.400       .  A
C477        N482   1.428       .  S
C478        C479   1.399       .  A
C478        H483   1.084       .  S
C479        C480   1.410       .  A
C480        N484   1.428       .  S
C481        C486   1.410       .  A
C481        C490   1.403       .  A
N482        O497   1.262       .  A
N482        O498   1.261       .  A
N484        O495   1.262       .  A
N484        O496   1.262       .  A
C486        C487   1.395       .  A
C486        N491   1.429       .  S
C487        C488   1.400       .  A
C487        H492   1.084       .  S
C488        C489   1.410       .  A
C489        C490   1.400       .  A
C489        N493   1.429       .  S
C490        H494   1.084       .  S
N491        O501   1.262       .  A
N491        O502   1.262       .  A
N493        O499   1.262       .  A
N493        O500   1.262       .  A
C503        C504   1.399       .  A
C503        C508   1.396       .  A
C503        H513   1.084       .  S
C504        C505   1.413       .  A
C504        C509   1.472       .  S
C505        C506   1.395       .  A
C505        N510   1.428       .  S
C506        C507   1.395       .  A
C506        H511   1.084       .  S
C507        C508   1.412       .  A
C508        N512   1.430       .  S
C509        C514   1.410       .  A
C509        C518   1.398       .  A
N510        O525   1.262   1_565  A
N510        O526   1.262       .  A
N512        O523   1.262       .  A
N512        O524   1.261       .  A
C514        C515   1.400       .  A
C514        N519   1.429       .  S
C515        C516   1.401       .  A
C515        H520   1.084       .  S
C516        C517   1.411       .  A
C517        C518   1.393       .  A
C517        N521   1.429       .  S
C518        H522   1.084       .  S
N519        O529   1.262       .  A
N519        O530   1.262       .  A
N521        O527   1.262       .  A
N521        O528   1.262   1_565  A
C531        C532   1.412       .  A
C531        C536   1.404       .  A
C531        H541   1.082       .  S
C532        C533   1.412       .  A
C532        C537   1.485       .  S
C533        C534   1.389       .  A
C533        N538   1.429       .  S
C534        C535   1.397       .  A
C534        H539   1.085       .  S
C535        C536   1.402       .  A
C536        N540   1.429       .  S
C537        C542   1.411       .  A
C537        C546   1.406       .  A
N538        O553   1.262       .  A
N538        O554   1.262       .  A
N540        O551   1.262       .  A
N540        O552   1.262       .  A
C542        C543   1.398       .  A
C542        N547   1.429       .  S
C543        C544   1.404       .  A
C543        H548   1.084       .  S
C544        C545   1.408       .  A
C545        C546   1.398       .  A
C545        N549   1.428       .  S
C546        H550   1.083       .  S
N547        O557   1.262       .  A
N547        O558   1.262       .  A
N549        O555   1.262       .  A
N549        O556   1.262       .  A
C559        C560   1.408       .  A
C559        C564   1.402       .  A
C559        H569   1.084       .  S
C560        C561   1.411       .  A
C560        C565   1.480       .  S
C561        C562   1.396       .  A
C561        N566   1.429       .  S
C562        C563   1.400       .  A
C562        H567   1.085       .  S
C563        C564   1.403       .  A
C564        N568   1.428       .  S
C565        C570   1.410       .  A
C565        C574   1.403       .  A
N566        O581   1.262       .  A
N566        O582   1.262       .  A
N568        O579   1.262       .  A
N568        O580   1.262       .  A
C570        C571   1.402       .  A
C570        N575   1.428       .  S
C571        C572   1.402       .  A
C571        H576   1.084       .  S
C572        C573   1.409       .  A
C573        C574   1.399       .  A
C573        N577   1.429       .  S
C574        H578   1.084       .  S
N575        O585   1.262   1_556  A
N575        O586   1.261       .  A
N577        O583   1.262   1_565  A
N577        O584   1.262       .  A
C587        C588   1.397       .  A
C587        C592   1.394       .  A
C587        H597   1.085       .  S
C588        C589   1.405       .  A
C588        C593   1.469       .  S
C589        C590   1.400       .  A
C589        N594   1.428       .  S
C590        C591   1.408       .  A
C590        H595   1.084       .  S
C591        C592   1.416       .  A
C592        N596   1.429       .  S
C593        C598   1.410       .  A
C593        C602   1.394       .  A
N594        O609   1.262       .  A
N594        O610   1.262       .  A
N596        O607   1.262       .  A
N596        O608   1.262       .  A
C598        C599   1.404       .  A
C598        N603   1.429       .  S
C599        C600   1.403       .  A
C599        H604   1.083       .  S
C600        C601   1.412       .  A
C601        C602   1.393       .  A
C601        N605   1.429       .  S
C602        H606   1.084       .  S
N603        O613   1.262       .  A
N603        O614   1.262       .  A
N605        O611   1.262       .  A
N605        O612   1.260       .  A
C615        C616   1.403       .  A
C615        C620   1.402       .  A
C615        H625   1.084       .  S
C616        C617   1.403       .  A
C616        C621   1.466       .  S
C617        C618   1.390       .  A
C617        N622   1.429       .  S
C618        C619   1.401       .  A
C618        H623   1.081       .  S
C619        C620   1.408       .  A
C620        N624   1.428       .  S
C621        C626   1.404       .  A
C621        C630   1.398       .  A
N622        O637   1.262       .  A
N622        O638   1.262       .  A
N624        O635   1.262       .  A
N624        O636   1.262       .  A
C626        C627   1.395       .  A
C626        N631   1.428       .  S
C627        C628   1.407       .  A
C627        H632   1.084       .  S
C628        C629   1.415       .  A
C629        C630   1.396       .  A
C629        N633   1.429       .  S
C630        H634   1.084       .  S
N631        O641   1.262       .  A
N631        O642   1.262       .  A
N633        O639   1.262       .  A
N633        O640   1.262       .  A
C643        C644   1.396       .  A
C643        C648   1.393       .  A
C643        H653   1.084       .  S
C644        C645   1.411       .  A
C644        C649   1.472       .  S
C645        C646   1.404       .  A
C645        N650   1.428       .  S
C646        C647   1.401       .  A
C646        H651   1.083       .  S
C647        C648   1.410       .  A
C648        N652   1.428       .  S
C649        C654   1.406       .  A
C649        C658   1.399       .  A
N650        O665   1.262       .  A
N650        O666   1.261       .  A
N652        O663   1.260       .  A
N652        O664   1.262       .  A
C654        C655   1.399       .  A
C654        N659   1.428       .  S
C655        C656   1.405       .  A
C655        H660   1.084       .  S
C656        C657   1.414       .  A
C657        C658   1.397       .  A
C657        N661   1.429       .  S
C658        H662   1.084       .  S
N659        O669   1.262       .  A
N659        O670   1.262   1_545  A
N661        O667   1.262       .  A
N661        O668   1.262       .  A
C671        C672   1.405       .  A
C671        C676   1.404       .  A
C671        H681   1.084       .  S
C672        C673   1.406       .  A
C672        C677   1.476       .  S
C673        C674   1.393       .  A
C673        N678   1.429       .  S
C674        C675   1.400       .  A
C674        H679   1.082       .  S
C675        C676   1.408       .  A
C676        N680   1.428       .  S
C677        C682   1.405       .  A
C677        C686   1.402       .  A
N678        O693   1.262       .  A
N678        O694   1.262       .  A
N680        O691   1.262       .  A
N680        O692   1.262       .  A
C682        C683   1.398       .  A
C682        N687   1.428       .  S
C683        C684   1.406       .  A
C683        H688   1.084   1_545  S
C684        C685   1.413       .  A
C685        C686   1.402       .  A
C685        N689   1.429       .  S
C686        H690   1.084       .  S
N687        O697   1.262   1_545  A
N687        O698   1.262       .  A
N689        O695   1.262       .  A
N689        O696   1.262       .  A
C699        C700   1.404       .  A
C699        C704   1.404       .  A
C699        H709   1.084       .  S
C700        C701   1.405       .  A
C700        C705   1.473       .  S
C701        C702   1.391       .  A
C701        N706   1.429       .  S
C702        C703   1.404       .  A
C702        H707   1.084       .  S
C703        C704   1.411       .  A
C704        N708   1.430       .  S
C705        C710   1.407       .  A
C705        C714   1.397       .  A
N706        O721   1.262       .  A
N706        O722   1.261       .  A
N708        O719   1.262   1_545  A
N708        O720   1.262       .  A
C710        C711   1.399       .  A
C710        N715   1.428       .  S
C711        C712   1.405       .  A
C711        H716   1.084       .  S
C712        C713   1.420       .  A
C713        C714   1.396       .  A
C713        N717   1.430       .  S
C714        H718   1.084       .  S
N715        O725   1.262   1_545  A
N715        O726   1.262       .  A
N717        O723   1.262       .  A
N717        O724   1.262       .  A
C727        C728   1.398       .  A
C727        C732   1.391       .  A
C727        H737   1.084       .  S
C728        C729   1.412       .  A
C728        C733   1.464       .  S
C729        C730   1.393       .  A
C729        N734   1.429       .  S
C730        C731   1.395       .  A
C730        H735   1.084       .  S
C731        C732   1.407       .  A
C732        N736   1.428       .  S
C733        C738   1.406       .  A
C733        C742   1.398       .  A
N734        O749   1.262       .  A
N734        O750   1.262       .  A
N736        O747   1.261       .  A
N736        O748   1.262       .  A
C738        C739   1.395       .  A
C738        N743   1.429       .  S
C739        C740   1.406       .  A
C739        H744   1.084       .  S
C740        C741   1.413       .  A
C741        C742   1.391       .  A
C741        N745   1.429       .  S
C742        H746   1.084       .  S
N743        O753   1.262       .  A
N743        O754   1.262   1_545  A
N745        O751   1.262       .  A
N745        O752   1.262       .  A
C755        C756   1.396       .  A
C755        C760   1.396       .  A
C755        H765   1.085       .  S
C756        C757   1.407       .  A
C756        C761   1.467       .  S
C757        C758   1.397       .  A
C757        N762   1.429       .  S
C758        C759   1.406       .  A
C758        H763   1.083       .  S
C759        C760   1.420       .  A
C760        N764   1.429       .  S
C761        C766   1.409       .  A
C761        C770   1.396       .  A
N762        O777   1.262       .  A
N762        O778   1.262       .  A
N764        O775   1.262       .  A
N764        O776   1.262       .  A
C766        C767   1.400       .  A
C766        N771   1.427       .  S
C767        C768   1.400       .  A
C767        H772   1.084       .  S
C768        C769   1.414       .  A
C769        C770   1.391       .  A
C769        N773   1.431       .  S
C770        H774   1.084       .  S
N771        O781   1.262       .  A
N771        O782   1.262   1_655  A
N773        O779   1.262       .  A
N773        O780   1.261       .  A
C783        C784   1.407       .  A
C783        C788   1.412       .  A
C783        H793   1.082       .  S
C784        C785   1.421       .  A
C784        C789   1.525       .  S
C785        C786   1.415       .  A
C785        N790   1.428       .  S
C786        C787   1.409       .  A
C786        H791   1.082       .  S
C787        C788   1.421       .  A
C788        N792   1.428       .  S
C789        C794   1.422       .  A
C789        C798   1.410       .  A
N790        O805   1.262       .  A
N790        O806   1.262       .  A
N792        O803   1.262       .  A
N792        O804   1.261       .  A
C794        C795   1.413       .  A
C794        N799   1.429       .  S
C795        C796   1.409       .  A
C795        H800   1.084       .  S
C796        C797   1.419       .  A
C797        C798   1.415       .  A
C797        N801   1.428       .  S
C798        H802   1.082       .  S
N799        O809   1.262       .  A
N799        O810   1.262       .  A
N801        O807   1.262       .  A
N801        O808   1.262       .  A
C811        C812   1.401       .  A
C811        C816   1.401       .  A
C811        H821   1.084       .  S
C812        C813   1.408       .  A
C812        C817   1.477       .  S
C813        C814   1.397       .  A
C813        N818   1.429       .  S
C814        C815   1.404       .  A
C814        H819   1.084       .  S
C815        C816   1.415       .  A
C816        N820   1.429       .  S
C817        C822   1.413       .  A
C817        C826   1.400       .  A
N818        O833   1.262       .  A
N818        O834   1.262       .  A
N820        O831   1.262   1_655  A
N820        O832   1.262       .  A
C822        C823   1.400       .  A
C822        N827   1.429       .  S
C823        C824   1.399       .  A
C823        H828   1.084       .  S
C824        C825   1.410       .  A
C825        C826   1.398       .  A
C825        N829   1.428       .  S
C826        H830   1.084       .  S
N827        O837   1.262       .  A
N827        O838   1.262       .  A
N829        O835   1.261       .  A
N829        O836   1.262       .  A
C839        C840   1.407       .  A
C839        C844   1.417       .  A
C839        H849   1.083       .  S
C840        C841   1.417       .  A
C840        C845   1.522       .  S
C841        C842   1.416       .  A
C841        N846   1.428       .  S
C842        C843   1.411       .  A
C842        H847   1.083       .  S
C843        C844   1.423       .  A
C844        N848   1.428       .  S
C845        C850   1.418       .  A
C845        C854   1.410       .  A
N846        O861   1.262       .  A
N846        O862   1.262       .  A
N848        O859   1.262       .  A
N848        O860   1.262       .  A
C850        C851   1.414       .  A
C850        N855   1.428       .  S
C851        C852   1.406       .  A
C851        H856   1.083       .  S
C852        C853   1.418       .  A
C853        C854   1.418       .  A
C853        N857   1.428       .  S
C854        H858   1.083       .  S
N855        O865   1.262       .  A
N855        O866   1.261       .  A
N857        O863   1.261       .  A
N857        O864   1.262       .  A
C867        C868   1.401       .  A
C867        C872   1.396       .  A
C867        H877   1.084       .  S
C868        C869   1.408       .  A
C868        C873   1.478       .  S
C869        C870   1.401       .  A
C869        N874   1.429   1_655  S
C870        C871   1.408       .  A
C870        H875   1.084       .  S
C871        C872   1.413       .  A
C872        N876   1.429       .  S
C873        C878   1.408       .  A
C873        C882   1.404       .  A
N874        O889   1.262       .  A
N874        O890   1.262       .  A
N876        O887   1.262       .  A
N876        O888   1.262       .  A
C878        C879   1.399       .  A
C878        N883   1.428       .  S
C879        C880   1.404       .  A
C879        H884   1.084       .  S
C880        C881   1.408       .  A
C881        C882   1.399       .  A
C881        N885   1.429       .  S
C882        H886   1.084       .  S
N883        O893   1.262       .  A
N883        O894   1.262       .  A
N885        O891   1.262       .  A
N885        O892   1.262       .  A
C895        C896   1.399       .  A
C895        C900   1.401       .  A
C895        H905   1.084       .  S
C896        C897   1.405       .  A
C896        C901   1.470       .  S
C897        C898   1.394       .  A
C897        N902   1.428       .  S
C898        C899   1.405       .  A
C898        H903   1.084       .  S
C899        C900   1.419       .  A
C900        N904   1.430   1_554  S
C901        C906   1.409       .  A
C901        C910   1.397       .  A
N902        O917   1.262       .  A
N902        O918   1.262   1_655  A
N904        O915   1.262       .  A
N904        O916   1.262       .  A
C906        C907   1.402       .  A
C906        N911   1.427       .  S
C907        C908   1.401       .  A
C907        H912   1.083       .  S
C908        C909   1.412       .  A
C909        C910   1.392       .  A
C909        N913   1.430       .  S
C910        H914   1.084       .  S
N911        O921   1.262       .  A
N911        O922   1.262   1_655  A
N913        O919   1.262       .  A
N913        O920   1.262       .  A
C923        C924   1.405       .  A
C923        C928   1.399       .  A
C923        H933   1.083       .  S
C924        C925   1.408       .  A
C924        C929   1.479       .  S
C925        C926   1.397       .  A
C925        N930   1.427       .  S
C926        C927   1.402       .  A
C926        H931   1.085       .  S
C927        C928   1.406       .  A
C928        N932   1.427       .  S
C929        C934   1.408       .  A
C929        C938   1.404       .  A
N930        O945   1.261       .  A
N930        O946   1.262       .  A
N932        O943   1.262       .  A
N932        O944   1.262       .  A
C934        C935   1.393       .  A
C934        N939   1.429       .  S
C935        C936   1.402       .  A
C935        H940   1.084       .  S
C936        C937   1.414       .  A
C937        C938   1.401       .  A
C937        N941   1.430       .  S
C938        H942   1.083       .  S
N939        O949   1.262       .  A
N939        O950   1.262       .  A
N941        O947   1.262       .  A
N941        O948   1.262       .  A
C951        C952   1.394       .  A
C951        C956   1.394       .  A
C951        H961   1.085       .  S
C952        C953   1.406       .  A
C952        C957   1.468       .  S
C953        C954   1.397       .  A
C953        N958   1.427       .  S
C954        C955   1.405       .  A
C954        H959   1.084       .  S
C955        C956   1.421       .  A
C956        N960   1.429       .  S
C957        C962   1.404       .  A
C957        C966   1.405       .  A
N958        O973   1.262       .  A
N958        O974   1.261       .  A
N960        O971   1.262       .  A
N960        O972   1.262   1_554  A
C962        C963   1.390       .  A
C962        N967   1.429       .  S
C963        C964   1.403       .  A
C963        H968   1.085       .  S
C964        C965   1.406       .  A
C965        C966   1.402       .  A
C965        N969   1.428       .  S
C966        H970   1.084       .  S
N967        O977   1.262       .  A
N967        O978   1.261       .  A
N969        O975   1.262       .  A
N969        O976   1.262       .  A
C979        C980   1.397       .  A
C979        C984   1.395       .  A
C979        H989   1.084       .  S
C980        C981   1.413       .  A
C980        C985   1.472       .  S
C981        C982   1.397       .  A
C981        N986   1.430       .  S
C982        C983   1.400       .  A
C982        H987   1.084       .  S
C983        C984   1.415       .  A
C984        N988   1.430   1_565  S
C985        C990   1.411       .  A
C985        C994   1.397       .  A
N986       O1001   1.262       .  A
N986       O1002   1.262       .  A
N988        O999   1.262       .  A
N988       O1000   1.262   1_545  A
C990        C991   1.398       .  A
C990        N995   1.428       .  S
C991        C992   1.401       .  A
C991        H996   1.084       .  S
C992        C993   1.411       .  A
C993        C994   1.393       .  A
C993        N997   1.427       .  S
C994        H998   1.084       .  S
N995       O1005   1.261   1_565  A
N995       O1006   1.262       .  A
N997       O1003   1.262       .  A
N997       O1004   1.262       .  A
C1007      C1008   1.406       .  A
C1007      C1012   1.395       .  A
C1007      H1017   1.084       .  S
C1008      C1009   1.406       .  A
C1008      C1013   1.472       .  S
C1009      C1010   1.391       .  A
C1009      N1014   1.430       .  S
C1010      C1011   1.402       .  A
C1010      H1015   1.080       .  S
C1011      C1012   1.405       .  A
C1012      N1016   1.428       .  S
C1013      C1018   1.414       .  A
C1013      C1022   1.398       .  A
N1014      O1029   1.262       .  A
N1014      O1030   1.262       .  A
N1016      O1027   1.262       .  A
N1016      O1028   1.262       .  A
C1018      C1019   1.393       .  A
C1018      N1023   1.430       .  S
C1019      C1020   1.400       .  A
C1019      H1024   1.084       .  S
C1020      C1021   1.417       .  A
C1021      C1022   1.393       .  A
C1021      N1025   1.430   1_455  S
C1022      H1026   1.084       .  S
N1023      O1033   1.262       .  A
N1023      O1034   1.262       .  A
N1025      O1031   1.262       .  A
N1025      O1032   1.262       .  A
C1035      C1036   1.397       .  A
C1035      C1040   1.389       .  A
C1035      H1045   1.084       .  S
C1036      C1037   1.410       .  A
C1036      C1041   1.468       .  S
C1037      C1038   1.397       .  A
C1037      N1042   1.429       .  S
C1038      C1039   1.403       .  A
C1038      H1043   1.084       .  S
C1039      C1040   1.411       .  A
C1040      N1044   1.429       .  S
C1041      C1046   1.413       .  A
C1041      C1050   1.397       .  A
N1042      O1057   1.262       .  A
N1042      O1058   1.262       .  A
N1044      O1055   1.262   1_565  A
N1044      O1056   1.262   1_565  A
C1046      C1047   1.394       .  A
C1046      N1051   1.430       .  S
C1047      C1048   1.396       .  A
C1047      H1052   1.084       .  S
C1048      C1049   1.411       .  A
C1049      C1050   1.393       .  A
C1049      N1053   1.429       .  S
C1050      H1054   1.084       .  S
N1051      O1061   1.262       .  A
N1051      O1062   1.262       .  A
N1053      O1059   1.262       .  A
N1053      O1060   1.260       .  A
C1063      C1064   1.394       .  A
C1063      C1068   1.393       .  A
C1063      H1073   1.084       .  S
C1064      C1065   1.410       .  A
C1064      C1069   1.465       .  S
C1065      C1066   1.397       .  A
C1065      N1070   1.428       .  S
C1066      C1067   1.397       .  A
C1066      H1071   1.084       .  S
C1067      C1068   1.410       .  A
C1068      N1072   1.426       .  S
C1069      C1074   1.405       .  A
C1069      C1078   1.400       .  A
N1070      O1085   1.262       .  A
N1070      O1086   1.261       .  A
N1072      O1083   1.262       .  A
N1072      O1084   1.260       .  A
C1074      C1075   1.394       .  A
C1074      N1079   1.429       .  S
C1075      C1076   1.403       .  A
C1075      H1080   1.084       .  S
C1076      C1077   1.409       .  A
C1077      C1078   1.398       .  A
C1077      N1081   1.428       .  S
C1078      H1082   1.084       .  S
N1079      O1089   1.262       .  A
N1079      O1090   1.261       .  A
N1081      O1087   1.262       .  A
N1081      O1088   1.262       .  A
C1091      C1092   1.397       .  A
C1091      C1096   1.394       .  A
C1091      H1101   1.084       .  S
C1092      C1093   1.410       .  A
C1092      C1097   1.468       .  S
C1093      C1094   1.398       .  A
C1093      N1098   1.428       .  S
C1094      C1095   1.400       .  A
C1094      H1099   1.084       .  S
C1095      C1096   1.411       .  A
C1096      N1100   1.428       .  S
C1097      C1102   1.408       .  A
C1097      C1106   1.397       .  A
N1098      O1113   1.262       .  A
N1098      O1114   1.261       .  A
N1100      O1111   1.262       .  A
N1100      O1112   1.262       .  A
C1102      C1103   1.399       .  A
C1102      N1107   1.429       .  S
C1103      C1104   1.402       .  A
C1103      H1108   1.084       .  S
C1104      C1105   1.414       .  A
C1105      C1106   1.394       .  A
C1105      N1109   1.430       .  S
C1106      H1110   1.084       .  S
N1107      O1117   1.262       .  A
N1107      O1118   1.261       .  A
N1109      O1115   1.262       .  A
N1109      O1116   1.262       .  A
C1119      C1120   1.392       .  A
C1119      C1124   1.386       .  A
C1119      H1129   1.084       .  S
C1120      C1121   1.413       .  A
C1120      C1125   1.466       .  S
C1121      C1122   1.399       .  A
C1121      N1126   1.428       .  S
C1122      C1123   1.398       .  A
C1122      H1127   1.084       .  S
C1123      C1124   1.412       .  A
C1124      N1128   1.427       .  S
C1125      C1130   1.413       .  A
C1125      C1134   1.397       .  A
N1126      O1141   1.262       .  A
N1126      O1142   1.261       .  A
N1128      O1139   1.259       .  A
N1128      O1140   1.260       .  A
C1130      C1131   1.397       .  A
C1130      N1135   1.429       .  S
C1131      C1132   1.396       .  A
C1131      H1136   1.084       .  S
C1132      C1133   1.409       .  A
C1133      C1134   1.390       .  A
C1133      N1137   1.430       .  S
C1134      H1138   1.084       .  S
N1135      O1145   1.262       .  A
N1135      O1146   1.262       .  A
N1137      O1143   1.262   1_556  A
N1137      O1144   1.262   1_556  A
C1147      C1148   1.402       .  A
C1147      C1152   1.401       .  A
C1147      H1157   1.084       .  S
C1148      C1149   1.402       .  A
C1148      C1153   1.467       .  S
C1149      C1150   1.392       .  A
C1149      N1154   1.430       .  S
C1150      C1151   1.408       .  A
C1150      H1155   1.084   1_455  S
C1151      C1152   1.412       .  A
C1152      N1156   1.428       .  S
C1153      C1158   1.411       .  A
C1153      C1162   1.396       .  A
N1154      O1169   1.262       .  A
N1154      O1170   1.261   1_455  A
N1156      O1167   1.262       .  A
N1156      O1168   1.262       .  A
C1158      C1159   1.398       .  A
C1158      N1163   1.428       .  S
C1159      C1160   1.398       .  A
C1159      H1164   1.084       .  S
C1160      C1161   1.408       .  A
C1161      C1162   1.393       .  A
C1161      N1165   1.428       .  S
C1162      H1166   1.084       .  S
N1163      O1173   1.262       .  A
N1163      O1174   1.261       .  A
N1165      O1171   1.262       .  A
N1165      O1172   1.261       .  A
C1175      C1176   1.398       .  A
C1175      C1180   1.389       .  A
C1175      H1185   1.084       .  S
C1176      C1177   1.414       .  A
C1176      C1181   1.482       .  S
C1177      C1178   1.404       .  A
C1177      N1182   1.427       .  S
C1178      C1179   1.401       .  A
C1178      H1183   1.084       .  S
C1179      C1180   1.410       .  A
C1180      N1184   1.429       .  S
C1181      C1186   1.413       .  A
C1181      C1190   1.402       .  A
N1182      O1197   1.262   1_455  A
N1182      O1198   1.261   1_455  A
N1184      O1195   1.262       .  A
N1184      O1196   1.261       .  A
C1186      C1187   1.396       .  A
C1186      N1191   1.430       .  S
C1187      C1188   1.400       .  A
C1187      H1192   1.084       .  S
C1188      C1189   1.415   1_455  A
C1189      C1190   1.400   1_655  A
C1189      N1193   1.429       .  S
C1190      H1194   1.083   1_455  S
N1191      O1201   1.262       .  A
N1191      O1202   1.262       .  A
N1193      O1199   1.262       .  A
N1193      O1200   1.262       .  A
C1203      C1204   1.408       .  A
C1203      C1208   1.418       .  A
C1203      H1213   1.084       .  S
C1204      C1205   1.417       .  A
C1204      C1209   1.522       .  S
C1205      C1206   1.417       .  A
C1205      N1210   1.428       .  S
C1206      C1207   1.412       .  A
C1206      H1211   1.083       .  S
C1207      C1208   1.424       .  A
C1208      N1212   1.428       .  S
C1209      C1214   1.417       .  A
C1209      C1218   1.407       .  A
N1210      O1225   1.262       .  A
N1210      O1226   1.261       .  A
N1212      O1223   1.262       .  A
N1212      O1224   1.262       .  A
C1214      C1215   1.416       .  A
C1214      N1219   1.428       .  S
C1215      C1216   1.408       .  A
C1215      H1220   1.084       .  S
C1216      C1217   1.424       .  A
C1217      C1218   1.417       .  A
C1217      N1221   1.430       .  S
C1218      H1222   1.084       .  S
N1219      O1229   1.262       .  A
N1219      O1230   1.262       .  A
N1221      O1227   1.262       .  A
N1221      O1228   1.260       .  A
C1231      C1232   1.406       .  A
C1231      C1236   1.415       .  A
C1231      H1241   1.084       .  S
C1232      C1233   1.419       .  A
C1232      C1237   1.520       .  S
C1233      C1234   1.415       .  A
C1233      N1238   1.427       .  S
C1234      C1235   1.408       .  A
C1234      H1239   1.083       .  S
C1235      C1236   1.421       .  A
C1236      N1240   1.428       .  S
C1237      C1242   1.416       .  A
C1237      C1246   1.409       .  A
N1238      O1253   1.262       .  A
N1238      O1254   1.262       .  A
N1240      O1251   1.261       .  A
N1240      O1252   1.262       .  A
C1242      C1243   1.414       .  A
C1242      N1247   1.428       .  S
C1243      C1244   1.412       .  A
C1243      H1248   1.083       .  S
C1244      C1245   1.423       .  A
C1245      C1246   1.419       .  A
C1245      N1249   1.428       .  S
C1246      H1250   1.084       .  S
N1247      O1257   1.262       .  A
N1247      O1258   1.262       .  A
N1249      O1255   1.262       .  A
N1249      O1256   1.262       .  A
C1259      C1260   1.409       .  A
C1259      C1264   1.415       .  A
C1259      H1269   1.084       .  S
C1260      C1261   1.422       .  A
C1260      C1265   1.528       .  S
C1261      C1262   1.418       .  A
C1261      N1266   1.428       .  S
C1262      C1263   1.408       .  A
C1262      H1267   1.083       .  S
C1263      C1264   1.419       .  A
C1264      N1268   1.428       .  S
C1265      C1270   1.420       .  A
C1265      C1274   1.412       .  A
N1266      O1281   1.262       .  A
N1266      O1282   1.262       .  A
N1268      O1279   1.261       .  A
N1268      O1280   1.262       .  A
C1270      C1271   1.416       .  A
C1270      N1275   1.429       .  S
C1271      C1272   1.412       .  A
C1271      H1276   1.083       .  S
C1272      C1273   1.421       .  A
C1273      C1274   1.418       .  A
C1273      N1277   1.428       .  S
C1274      H1278   1.084       .  S
N1275      O1285   1.262       .  A
N1275      O1286   1.262       .  A
N1277      O1283   1.262       .  A
N1277      O1284   1.262       .  A
C1287      C1288   1.407       .  A
C1287      C1292   1.411       .  A
C1287      H1297   1.084       .  S
C1288      C1289   1.416       .  A
C1288      C1293   1.512       .  S
C1289      C1290   1.411       .  A
C1289      N1294   1.428       .  S
C1290      C1291   1.408       .  A
C1290      H1295   1.084       .  S
C1291      C1292   1.419       .  A
C1292      N1296   1.429       .  S
C1293      C1298   1.418       .  A
C1293      C1302   1.405       .  A
N1294      O1309   1.262       .  A
N1294      O1310   1.262       .  A
N1296      O1307   1.262       .  A
N1296      O1308   1.260       .  A
C1298      C1299   1.416       .  A
C1298      N1303   1.429       .  S
C1299      C1300   1.411       .  A
C1299      H1304   1.083       .  S
C1300      C1301   1.422       .  A
C1301      C1302   1.409       .  A
C1301      N1305   1.428       .  S
C1302      H1306   1.084       .  S
N1303      O1313   1.262       .  A
N1303      O1314   1.262       .  A
N1305      O1311   1.262       .  A
N1305      O1312   1.262       .  A
C1315      C1316   1.410       .  A
C1315      C1320   1.417       .  A
C1315      H1325   1.084       .  S
C1316      C1317   1.421       .  A
C1316      C1321   1.530       .  S
C1317      C1318   1.419       .  A
C1317      N1322   1.429       .  S
C1318      C1319   1.412       .  A
C1318      H1323   1.083       .  S
C1319      C1320   1.423       .  A
C1320      N1324   1.428       .  S
C1321      C1326   1.421       .  A
C1321      C1330   1.410       .  A
N1322      O1337   1.262       .  A
N1322      O1338   1.262       .  A
N1324      O1335   1.262       .  A
N1324      O1336   1.262       .  A
C1326      C1327   1.418       .  A
C1326      N1331   1.428       .  S
C1327      C1328   1.408       .  A
C1327      H1332   1.084       .  S
C1328      C1329   1.420       .  A
C1329      C1330   1.417       .  A
C1329      N1333   1.428       .  S
C1330      H1334   1.084       .  S
N1331      O1341   1.262       .  A
N1331      O1342   1.262       .  A
N1333      O1339   1.262       .  A
N1333      O1340   1.262       .  A
C1343      C1344   1.410       .  A
C1343      C1348   1.417       .  A
C1343      H1353   1.084       .  S
C1344      C1345   1.419       .  A
C1344      C1349   1.525       .  S
C1345      C1346   1.417       .  A
C1345      N1350   1.428       .  S
C1346      C1347   1.408       .  A
C1346      H1351   1.084       .  S
C1347      C1348   1.420       .  A
C1348      N1352   1.428       .  S
C1349      C1354   1.420       .  A
C1349      C1358   1.408       .  A
N1350      O1365   1.262       .  A
N1350      O1366   1.262       .  A
N1352      O1363   1.262       .  A
N1352      O1364   1.262       .  A
C1354      C1355   1.418       .  A
C1354      N1359   1.429       .  S
C1355      C1356   1.413       .  A
C1355      H1360   1.083       .  S
C1356      C1357   1.422       .  A
C1357      C1358   1.416       .  A
C1357      N1361   1.428       .  S
C1358      H1362   1.084       .  S
N1359      O1369   1.262       .  A
N1359      O1370   1.262       .  A
N1361      O1367   1.262       .  A
N1361      O1368   1.262       .  A
