geometry optimzed in LAMMPS
_audit_creation_date              2020-11-30 
_audit_creation_method            'lammps2cif' 
_symmetry_space_group_name_H-M    'P1' 
_symmetry_Int_Tables_number       1 
_symmetry_cell_setting            triclinic 
loop_ 
_symmetry_equiv_pos_as_xyz 
  x,y,z 
_cell_length_a                    29.26909005 
_cell_length_b                    54.54107272564562 
_cell_length_c                    71.08961704483842 
_cell_angle_alpha                 88.94876488044765 
_cell_angle_beta                  89.86528664162714 
_cell_angle_gamma                 117.80331130998275 
loop_ 
_atom_site_label 
_atom_site_type_symbol 
_atom_site_fract_x 
_atom_site_fract_y 
_atom_site_fract_z 
_atom_site_charge 
C1          C  0.25331491  0.50883976  0.09813552     0.80200
N2          N  0.26727092  0.02613398  0.11182898    -0.78200
C3          C  0.29608726  0.02500157  0.12659747     0.82600
N4          N  0.30791580  0.50420855  0.12741890    -0.78100
C5          C  0.28629300  0.48317641  0.11524650     0.82700
N6          N  0.25945624  0.48577925  0.10063236    -0.79800
C7          C  0.45920965  0.13334963  0.20442873     0.80200
N8          N  0.46990557  0.15958065  0.19913205    -0.78200
C9          C  0.45307077  0.16440810  0.18236617     0.82600
N10         N  0.42510117  0.14265253  0.17108963    -0.78100
C11         C  0.41459458  0.11644580  0.17615890     0.82700
N12         N  0.43235803  0.11198471  0.19278899    -0.79800
C13         C  0.05283274  0.16080649  0.10534452     0.80200
N14         N  0.01286471  0.14685040  0.11773006    -0.78200
C15         C  0.97306093  0.12180677  0.11320190     0.82600
N16         N  0.97476693  0.11088006  0.09632075    -0.78100
C17         C  0.01464680  0.12429026  0.08390728     0.82700
N18         N  0.05339925  0.14941677  0.08853660    -0.79800
C19         C  0.73634079  0.01083860  0.17634307     0.80200
N20         N  0.72965293  0.02363678  0.19153880    -0.78200
C21         C  0.75876362  0.05141237  0.19361938     0.82600
N22         N  0.79522337  0.06634345  0.18039803    -0.78100
C23         C  0.80280033  0.05404812  0.16507762     0.82700
N24         N  0.77291740  0.02625942  0.16309487    -0.79800
C25         C  0.02776052  0.29959172  0.17818143     0.80200
N26         N  0.00299745  0.28269161  0.19315492    -0.78200
C27         C  0.95160196  0.27350373  0.19611315     0.82600
N28         N  0.92461088  0.28147334  0.18408749    -0.78100
C29         C  0.94881609  0.29865194  0.16915487     0.82700
N30         N  0.00018434  0.30736877  0.16631591    -0.79800
C31         C  0.77114172  0.34069684  0.10525016     0.80200
N32         N  0.79481308  0.33113495  0.11769542    -0.78200
C33         C  0.84258131  0.33377117  0.11377925     0.82600
N34         N  0.86650466  0.34657045  0.09740921    -0.78100
C35         C  0.84337662  0.35614384  0.08485029     0.82700
N36         N  0.79568799  0.35310038  0.08884559    -0.79800
Zr37       Zr  0.32378238  0.33032051  0.12155985     2.17500
O38         O  0.29288280  0.33121033  0.08989109    -0.51400
O39         O  0.25034661  0.32670453  0.13973435    -0.74600
O40         O  0.25191046  0.28481745  0.11499493    -0.81400
O41         O  0.39491744  0.40764872  0.12832856    -0.83100
O42         O  0.27447644  0.25372398  0.12803969    -0.78800
O43         O  0.32216818  0.37375367  0.11532193    -0.90400
O44         O  0.26846092  0.32422453  0.17050508    -0.76400
O45         O  0.31709368  0.30043507  0.14738374    -0.85800
O46         O  0.36291805  0.35881245  0.14788354    -0.85500
O47         O  0.36929707  0.30585785  0.11119342    -0.72300
O48         O  0.41200500  0.36061831  0.11208695    -0.84400
Zr49       Zr  0.49013772  0.33503432  0.15535872     2.26400
Zr50       Zr  0.36376436  0.27697286  0.13759365     2.06300
Zr51       Zr  0.45056727  0.38860821  0.13884707     2.10000
Zr52       Zr  0.35560273  0.32898333  0.17347232     1.78800
O53         O  0.49691278  0.42506548  0.11540420    -0.93200
O54         O  0.30166459  0.28721024  0.19195624    -0.41000
O55         O  0.44444077  0.35949765  0.16530874    -0.77700
O56         O  0.40200442  0.30437971  0.16467869    -0.96400
O57         O  0.45152951  0.30642914  0.12911335    -0.89700
O58         O  0.49677970  0.36463211  0.12931212    -0.92500
C59         C  0.23837956  0.32423048  0.15730013     1.01200
C60         C  0.35098437  0.39879317  0.12031407     1.14200
C61         C  0.24220683  0.26001233  0.11981526     1.05000
O62         O  0.31909432  0.23797045  0.15947659    -0.94700
O63         O  0.41915923  0.25773232  0.14742793    -0.90400
O64         O  0.49033812  0.29081497  0.16164433    -0.83600
C65         C  0.46149432  0.26580964  0.15638517     1.11600
O66         O  0.42542269  0.33645963  0.07188213    -0.96600
Zr67       Zr  0.45847569  0.33589530  0.10324374     1.88900
O68         O  0.55978040  0.33601377  0.13666018    -0.73300
O69         O  0.35646653  0.24657617  0.11187900    -0.52500
O70         O  0.45152030  0.29655872  0.08543581    -0.97200
O71         O  0.51656906  0.37709504  0.08497996    -0.54400
O72         O  0.54247515  0.33634540  0.10561411    -0.73800
C73         C  0.57123948  0.33613413  0.11922779     0.98500
O74         O  0.52284456  0.33511921  0.18688050    -0.62600
O75         O  0.45639907  0.42071317  0.16321776    -0.57400
O76         O  0.56107135  0.38122376  0.16243733    -0.94100
O77         O  0.53815849  0.41298675  0.15055125    -0.92500
O78         O  0.35771362  0.36668749  0.19197017    -0.92900
O79         O  0.38901227  0.33112157  0.20508262    -0.91700
C80         C  0.56999690  0.40633376  0.15873564     1.17400
H81         H  0.34489427  0.36943799  0.15141619     0.33300
H82         H  0.40136586  0.29250703  0.17505425     0.44200
H83         H  0.53230679  0.37733636  0.12628756     0.37700
H84         H  0.35194553  0.29460166  0.10052897     0.34200
H85         H  0.28519016  0.29338964  0.20166197     0.26000
H86         H  0.39235657  0.25030419  0.10923167     0.31900
H87         H  0.46939901  0.28836680  0.09309611     0.37800
H88         H  0.33428247  0.37252114  0.18553814     0.32300
H89         H  0.46718962  0.43862298  0.15643970     0.31200
H90         H  0.52804184  0.42314485  0.11228220     0.32800
H91         H  0.54759880  0.38675537  0.09281630     0.31800
H92         H  0.41177162  0.32229174  0.20416354     0.35800
H93         H  0.51827045  0.34964782  0.19351629     0.28500
H94         H  0.25569119  0.32565293  0.09153061     0.32800
H95         H  0.45134839  0.33616645  0.06304182     0.35600
H96         H  0.42017729  0.41473969  0.16712138     0.28200
H97         H  0.49708195  0.31755852  0.19292906     0.41100
H98         H  0.31008235  0.24591558  0.17040443     0.31200
H99         H  0.27307894  0.27579478  0.18348885     0.38800
H100        H  0.49973626  0.38917812  0.08509095     0.30600
H101        H  0.33953017  0.22769924  0.11762558     0.30700
H102        H  0.29370797  0.31542367  0.08351919     0.31000
Zr103      Zr  0.72005511  0.15804556  0.34777528     2.17500
O104        O  0.72411296  0.13549142  0.37720414    -0.51400
O105        O  0.70400140  0.19067995  0.36590714    -0.74600
O106        O  0.80453523  0.17959287  0.36208684    -0.81400
O107        O  0.57920026  0.10466760  0.34268904    -0.83100
O108        O  0.86675474  0.19867243  0.33940347    -0.78800
O109        O  0.64649465  0.12006947  0.36296926    -0.90400
O110        O  0.69901250  0.22239883  0.34618356    -0.76400
O111        O  0.76739568  0.20037612  0.33058533    -0.85800
O112        O  0.65633229  0.16625225  0.33218762    -0.85500
O113        O  0.77656780  0.14969060  0.32733477    -0.72300
O114        O  0.67404421  0.11870224  0.32844366    -0.84400
Zr115      Zr  0.71436426  0.16121829  0.27412463     2.26400
Zr116      Zr  0.82244253  0.19220042  0.30937478     2.06300
Zr117      Zr  0.61162627  0.12755771  0.31222172     2.10000
Zr118      Zr  0.70396964  0.20819224  0.31450758     1.78800
O119        O  0.55071125  0.07914206  0.30714334    -0.93200
O120        O  0.77148350  0.25614611  0.31553246    -0.41000
O121        O  0.65807802  0.16970454  0.29444965    -0.77700
O122        O  0.75986099  0.20114370  0.29313112    -0.96400
O123        O  0.77742263  0.15293577  0.28979144    -0.89700
O124        O  0.66648790  0.11908040  0.29131058    -0.92500
C125        C  0.69853224  0.21239881  0.36266476     1.01200
C126        C  0.59921588  0.10454959  0.35874745     1.14200
C127        C  0.85187471  0.19237402  0.35666278     1.05000
O128        O  0.87681913  0.24200582  0.31178106    -0.94700
O129        O  0.86001060  0.21162829  0.27833108    -0.90400
O130        O  0.79394014  0.19161279  0.25791401    -0.83600
C131        C  0.84124729  0.20802428  0.26164585     1.11600
O132        O  0.73943561  0.08333634  0.33278394    -0.96600
Zr133      Zr  0.72943692  0.11098472  0.30740648     1.88900
O134        O  0.72435307  0.12654571  0.25608243    -0.73300
O135        O  0.89328744  0.18134660  0.30429268    -0.52500
O136        O  0.80934834  0.10770888  0.30488932    -0.97200
O137        O  0.66032017  0.06326787  0.30819785    -0.54400
O138        O  0.73076079  0.09525960  0.27583054    -0.73800
C139        C  0.72935479  0.10466048  0.25931332     0.98500
O140        O  0.70018074  0.18507878  0.24715633    -0.62600
O141        O  0.54244606  0.13924057  0.31902405    -0.57400
O142        O  0.63172124  0.14101593  0.25908893    -0.94100
O143        O  0.56982702  0.12479001  0.28209187    -0.92500
O144        O  0.62292658  0.21055009  0.31573586    -0.92900
O145        O  0.69667950  0.23674560  0.28913566    -0.91700
C146        C  0.58471591  0.13022505  0.26478346     1.17400
H147        H  0.63235535  0.16760490  0.34093858     0.33300
H148        H  0.77685682  0.21767851  0.28529743     0.44200
H149        H  0.64623139  0.10416281  0.28302634     0.37700
H150        H  0.80023853  0.14577689  0.33461906     0.34200
H151        H  0.75436843  0.26639228  0.32096400     0.26000
H152        H  0.92477530  0.19856946  0.30736028     0.31900
H153        H  0.82901872  0.12081091  0.29452178     0.37800
H154        H  0.63147339  0.22818509  0.32204567     0.32300
H155        H  0.51083079  0.12352108  0.31421657     0.31200
H156        H  0.51703424  0.07710412  0.31162503     0.32800
H157        H  0.67657996  0.05218701  0.30346073     0.31800
H158        H  0.67770581  0.22348287  0.27915879     0.35800
H159        H  0.72152695  0.20511552  0.24943693     0.28500
H160        H  0.73398774  0.14973499  0.38695021     0.32800
H161        H  0.71763168  0.08410621  0.34319425     0.35600
H162        H  0.53795556  0.13753850  0.33287503     0.28200
H163        H  0.71675126  0.18120401  0.23625222     0.41100
H164        H  0.91194638  0.24427280  0.31399220     0.31200
H165        H  0.79518571  0.25621751  0.32546931     0.38800
H166        H  0.63631004  0.06236967  0.29813530     0.30600
H167        H  0.88975037  0.16807635  0.31458785     0.30700
H168        H  0.75383312  0.13161971  0.37596272     0.31000
C169        C  0.64713103  0.46240646  0.50707240     0.80200
N170        N  0.62154284  0.44760124  0.52270541    -0.78200
C171        C  0.57529280  0.44578484  0.52777741     0.82600
N172        N  0.55438971  0.45883112  0.51709742    -0.78100
C173        C  0.57905595  0.47359062  0.50133917     0.82700
N174        N  0.62555907  0.47539766  0.49646970    -0.79800
C175        C  0.40247354  0.02810128  0.44387099     0.80200
N176        N  0.42475999  0.01660886  0.45550924    -0.78200
C177        C  0.47124553  0.01815706  0.45112198     0.82600
N178        N  0.49527953  0.03154717  0.43494321    -0.78100
C179        C  0.47414671  0.04321217  0.42309484     0.82700
N180        N  0.42751986  0.04143444  0.42767564    -0.79800
C181        C  0.36103749  0.19239954  0.51060608     0.80200
N182        N  0.40658338  0.20137753  0.50117247    -0.78200
C183        C  0.44825624  0.22589382  0.50535032     0.82600
N184        N  0.44402160  0.24157454  0.51930867    -0.78100
C185        C  0.39834321  0.23289195  0.52875736     0.82700
N186        N  0.35731731  0.20854022  0.52423047    -0.79800
C187        C  0.70724094  0.30672843  0.44551324     0.80200
N188        N  0.66540993  0.29547023  0.45732147    -0.78200
C189        C  0.62595214  0.26956222  0.45449627     0.82600
N190        N  0.62890395  0.25471015  0.43978870    -0.78100
C191        C  0.67047368  0.26578683  0.42795594     0.82700
N192        N  0.70894874  0.29170448  0.43085101    -0.79800
C193        C  0.05860833  0.29505607  0.54105694     0.80200
N194        N  0.04342124  0.31504748  0.54028570    -0.78200
C195        C  0.01697894  0.31751531  0.52529152     0.82600
N196        N  0.00524671  0.29923238  0.51094782    -0.78100
C197        C  0.01982236  0.27881658  0.51168191     0.82700
N198        N  0.04682224  0.27724055  0.52675198    -0.79800
C199        C  0.99021677  0.19937402  0.41674687     0.80200
N200        N  0.99051828  0.21283977  0.43258613    -0.78200
C201        C  0.01314394  0.21025882  0.44860488     0.82600
N202        N  0.03599070  0.19337551  0.44870930    -0.78100
C203        C  0.03623982  0.17959119  0.43283357     0.82700
N204        N  0.01294034  0.18267400  0.41701092    -0.79800
Zr205      Zr  0.95025744  0.46025775  0.49484661     2.17500
O206        O  0.91287168  0.44639864  0.52632635    -0.51400
O207        O  0.88513194  0.42176220  0.47815519    -0.74600
O208        O  0.87160140  0.46538137  0.49631655    -0.81400
O209        O  0.04593571  0.43216713  0.50179734    -0.83100
O210        O  0.88581000  0.50459130  0.48017440    -0.78800
O211        O  0.96181751  0.42126418  0.50731162    -0.90400
O212        O  0.90984288  0.42854461  0.44736683    -0.76400
O213        O  0.94182750  0.47904002  0.46538613    -0.85800
O214        O  0.00095293  0.45133777  0.47240998    -0.85500
O215        O  0.97837585  0.00880235  0.50028595    -0.72300
O216        O  0.03695436  0.48305480  0.50655103    -0.84400
Zr217      Zr  0.11144423  0.04053476  0.46071639     2.26400
Zr218      Zr  0.97341911  0.02587908  0.46951024     2.06300
Zr219      Zr  0.08727859  0.47467180  0.48346856     2.10000
Zr220      Zr  0.99259041  0.47037110  0.44320367     1.78800
O221        O  0.14425227  0.47537834  0.50859792    -0.93200
O222        O  0.93639278  0.47631502  0.42032910    -0.41000
O223        O  0.08039884  0.49370615  0.45371612    -0.77700
O224        O  0.02624420  0.01705764  0.44784271    -0.96400
O225        O  0.05851060  0.04994983  0.48167072    -0.89700
O226        O  0.11776810  0.02269026  0.49083982    -0.92500
C227        C  0.87844721  0.41477315  0.46088715     1.01200
C228        C  0.00050651  0.41612729  0.50823630     1.14200
C229        C  0.85665888  0.48257862  0.48965949     1.05000
O230        O  0.92010052  0.02575283  0.44325594    -0.94700
O231        O  0.01496421  0.06715382  0.45019782    -0.90400
O232        O  0.10033840  0.07914534  0.44729888    -0.83600
C233        C  0.06119239  0.08356088  0.44481501     1.11600
O234        O  0.02500273  0.02031730  0.54292855    -0.96600
Zr235      Zr  0.06521706  0.03218072  0.51173283     1.88900
O236        O  0.17301857  0.08004128  0.47798495    -0.73300
O237        O  0.95958836  0.05940870  0.48756305    -0.52500
O238        O  0.04322142  0.06739988  0.52280386    -0.97200
O239        O  0.12404718  0.02904362  0.53478678    -0.54400
O240        O  0.14441247  0.07588689  0.50816143    -0.73800
C241        C  0.17727565  0.08876613  0.49488190     0.98500
O242        O  0.15127982  0.05203422  0.42946476    -0.62600
O243        O  0.09982446  0.44115697  0.46485702    -0.57400
O244        O  0.18877099  0.03455475  0.45905881    -0.94100
O245        O  0.17627208  0.99681733  0.47699081    -0.92500
O246        O  0.00941887  0.43376021  0.43114064    -0.92900
O247        O  0.03086356  0.47902322  0.41176211    -0.91700
C248        C  0.20402072  0.01790458  0.46640374     1.17400
H249        H  0.98928921  0.43169716  0.47131928     0.33300
H250        H  0.02582209  0.02489469  0.43558199     0.44200
H251        H  0.15307974  0.03128539  0.49513960     0.37700
H252        H  0.95561766  0.01157365  0.50886705     0.34200
H253        H  0.90783427  0.47610535  0.42793806     0.26000
H254        H  0.99433144  0.07551601  0.48858581     0.31900
H255        H  0.07103665  0.07853289  0.53162869     0.37800
H256        H  0.98557069  0.41669488  0.43819567     0.32300
H257        H  0.11566350  0.43306600  0.47361957     0.31200
H258        H  0.15451619  0.46109122  0.50519510     0.32800
H259        H  0.15860795  0.03789567  0.52866931     0.31800
H260        H  0.07104940  0.98843839  0.41586586     0.35800
H261        H  0.12205133  0.04688875  0.42073128     0.28500
H262        H  0.87718291  0.43161294  0.52431456     0.32800
H263        H  0.04944346  0.03465007  0.55137173     0.35600
H264        H  0.06470721  0.42588932  0.46275922     0.28200
H265        H  0.17031998  0.07253170  0.42870954     0.41100
H266        H  0.90872803  0.03966859  0.44646075     0.31200
H267        H  0.95583706  0.49567791  0.41555002     0.38800
H268        H  0.11451214  0.00908923  0.53557893     0.30600
H269        H  0.94081299  0.06592968  0.47894043     0.30700
H270        H  0.90871337  0.46232818  0.53082124     0.31000
C271        C  0.60204720  0.37143599  0.75060630     0.80200
N272        N  0.59372304  0.34531876  0.75482226    -0.78200
C273        C  0.60858276  0.33930319  0.77159647     0.82600
N274        N  0.63333490  0.35985350  0.78406489    -0.78100
C275        C  0.64233445  0.38622883  0.78002991     0.82700
N276        N  0.62592407  0.39178542  0.76332813    -0.79800
C277        C  0.80683849  0.99079901  0.85796593     0.80200
N278        N  0.78987745  0.47479536  0.84595724    -0.78200
C279        C  0.76172580  0.47614185  0.83104846     0.82600
N280        N  0.75222827  0.99471326  0.82854572    -0.78100
C281        C  0.77258679  0.01565452  0.84088587     0.82700
N282        N  0.79958719  0.01352507  0.85566102    -0.79800
C283        C  0.32580291  0.49142705  0.77559276     0.80200
N284        N  0.28780945  0.47526211  0.78816937    -0.78200
C285        C  0.25829610  0.44753639  0.78554470     0.82600
N286        N  0.26798701  0.43617468  0.77028979    -0.78100
C287        C  0.30604787  0.45177363  0.75769175     0.82700
N288        N  0.33489357  0.47946038  0.76038695    -0.79800
C289        C  0.01697426  0.33930411  0.84784416     0.80200
N290        N  0.01173257  0.35139619  0.86362560    -0.78200
C291        C  0.04375887  0.37847817  0.86680149     0.82600
N292        N  0.08187356  0.39373048  0.85416366    -0.78100
C293        C  0.08863570  0.38206518  0.83836810     0.82700
N294        N  0.05546370  0.35479771  0.83518312    -0.79800
C295        C  0.29529134  0.16023076  0.84908456     0.80200
N296        N  0.26977012  0.16776954  0.83610253    -0.78200
C297        C  0.21974813  0.16209209  0.83912173     0.82600
N298        N  0.19548170  0.14874520  0.85525572    -0.78100
C299        C  0.22025312  0.14116707  0.86839170     0.82700
N300        N  0.26998236  0.14687459  0.86521378    -0.79800
C301        C  0.03802635  0.20284091  0.77837348     0.80200
N302        N  0.06517271  0.19471474  0.79012044    -0.78200
C303        C  0.11650493  0.20333869  0.78723533     0.82600
N304        N  0.14082185  0.22059740  0.77232816    -0.78100
C305        C  0.11403063  0.22881578  0.76041071     0.82700
N306        N  0.06286879  0.21969351  0.76341568    -0.79800
Zr307      Zr  0.57634387  0.16892684  0.79728073     2.17500
O308        O  0.53940358  0.16856587  0.76654599    -0.51400
O309        O  0.50817800  0.16936867  0.81630763    -0.74600
O310        O  0.50398116  0.12269745  0.79177476    -0.81400
O311        O  0.66004845  0.24690493  0.79653192    -0.83100
O312        O  0.52203633  0.09137716  0.80717714    -0.78800
O313        O  0.58160098  0.21318413  0.78721479    -0.90400
O314        O  0.52783027  0.16918489  0.84719199    -0.76400
O315        O  0.56957401  0.14131825  0.82440257    -0.85800
O316        O  0.62062791  0.19986620  0.82204277    -0.85500
O317        O  0.61650628  0.14125280  0.78817475    -0.72300
O318        O  0.66388531  0.19617639  0.78636229    -0.84400
Zr319      Zr  0.74285056  0.17137260  0.82979860     2.26400
Zr320      Zr  0.61136206  0.11462889  0.81607912     2.06300
Zr321      Zr  0.70833078  0.22635009  0.81164777     2.10000
Zr322      Zr  0.61368830  0.17195064  0.84896213     1.78800
O323        O  0.75984574  0.26247935  0.78866096    -0.93200
O324        O  0.55798740  0.13175680  0.86852765    -0.41000
O325        O  0.70262974  0.19907737  0.83915185    -0.77700
O326        O  0.65565031  0.14446782  0.84136225    -0.96400
O327        O  0.69833430  0.14083018  0.80517944    -0.89700
O328        O  0.74856557  0.19919020  0.80280254    -0.92500
C329        C  0.49783055  0.16888010  0.83389227     1.01200
C330        C  0.61574806  0.23863215  0.78891943     1.14200
C331        C  0.49217834  0.09791483  0.79763266     1.05000
O332        O  0.56600916  0.08355992  0.84246719    -0.94700
O333        O  0.66184786  0.09276684  0.82653207    -0.90400
O334        O  0.74069066  0.12619570  0.83508703    -0.83600
C335        C  0.70755104  0.10060615  0.83262249     1.11600
O336        O  0.67255361  0.16328171  0.74621705    -0.96600
Zr337      Zr  0.70501371  0.16865048  0.77822738     1.88900
O338        O  0.81345943  0.17478787  0.81025141    -0.73300
O339        O  0.59824360  0.07759159  0.79464020    -0.52500
O340        O  0.69831087  0.12701670  0.76363752    -0.97200
O341        O  0.75286698  0.20913218  0.75771555    -0.54400
O342        O  0.79312468  0.17472684  0.77941369    -0.73800
C343        C  0.82433512  0.17639767  0.79261467     0.98500
O344        O  0.77648714  0.17049821  0.86098783    -0.62600
O345        O  0.71404421  0.25961650  0.83512054    -0.57400
O346        O  0.81672284  0.21670116  0.83544768    -0.94100
O347        O  0.79854651  0.24890457  0.82126561    -0.92500
O348        O  0.62328047  0.21303778  0.86513466    -0.92900
O349        O  0.64697296  0.17552434  0.88073365    -0.91700
C350        C  0.82906317  0.24167869  0.82993655     1.17400
H351        H  0.60543606  0.21180551  0.82470945     0.33300
H352        H  0.65529474  0.13351817  0.85225011     0.44200
H353        H  0.78376741  0.21126576  0.79889351     0.37700
H354        H  0.59726537  0.12917606  0.77817185     0.34200
H355        H  0.54255147  0.13899947  0.87791878     0.26000
H356        H  0.56902538  0.06078998  0.80018060     0.31900
H357        H  0.69458395  0.11414043  0.77422020     0.37800
H358        H  0.59215040  0.20642380  0.87330302     0.32300
H359        H  0.73166992  0.27785973  0.82850167     0.31200
H360        H  0.77032673  0.28008626  0.79528440     0.32800
H361        H  0.78927963  0.21674414  0.76162063     0.31800
H362        H  0.66238430  0.16277069  0.88114805     0.35800
H363        H  0.77428087  0.18566940  0.86769756     0.28500
H364        H  0.50237347  0.16257869  0.76908557     0.32800
H365        H  0.70059487  0.16378111  0.73812182     0.35600
H366        H  0.67810624  0.25637388  0.83695284     0.28200
H367        H  0.74971627  0.15337212  0.86717820     0.41100
H368        H  0.55569279  0.06476942  0.83772100     0.31200
H369        H  0.52887609  0.12015282  0.86030961     0.38800
H370        H  0.74236058  0.22301127  0.76186438     0.30600
H371        H  0.58416351  0.08165680  0.78303812     0.30700
H372        H  0.53994857  0.15287705  0.75994114     0.31000
Zr373      Zr  0.04146695  0.99902653  0.94070599     2.17500
O374        O  0.10342454  0.00788315  0.91516644    -0.51400
O375        O  0.97187627  0.99250800  0.91965714    -0.74600
O376        O  0.03326101  0.46026814  0.92616766    -0.81400
O377        O  0.10657191  0.07630926  0.94715098    -0.83100
O378        O  0.00331417  0.42420690  0.94714760    -0.78800
O379        O  0.08047685  0.04333403  0.92480957    -0.90400
O380        O  0.91221182  0.49504643  0.93789156    -0.76400
O381        O  0.96963525  0.46929462  0.95485153    -0.85800
O382        O  0.00554256  0.02451210  0.95596245    -0.85500
O383        O  0.07393412  0.47746833  0.96103682    -0.72300
O384        O  0.10698906  0.02848628  0.96179282    -0.84400
Zr385      Zr  0.02519529  0.49971398  0.01346831     2.26400
Zr386      Zr  0.99594035  0.44444669  0.97667768     2.06300
Zr387      Zr  0.06980395  0.05338007  0.97758394     2.10000
Zr388      Zr  0.93508777  0.49512517  0.97049309     1.78800
O389        O  0.15558832  0.08975535  0.98521785    -0.93200
O390        O  0.85713326  0.45109716  0.96729796    -0.41000
O391        O  0.99236337  0.01964897  0.99284245    -0.77700
O392        O  0.95882778  0.46959387  0.99264169    -0.96400
O393        O  0.06007787  0.47361338  0.99830046    -0.89700
O394        O  0.09628184  0.02845352  0.99937887    -0.92500
C395        C  0.92559440  0.98858829  0.92217045     1.01200
C396        C  0.10369348  0.06850869  0.92999463     1.14200
C397        C  0.01818819  0.43474836  0.93055748     1.05000
O398        O  0.90961776  0.40751586  0.97033176    -0.94700
O399        O  0.95953146  0.42044944  0.00645380    -0.90400
O400        O  0.98088176  0.45399426  0.02817534    -0.83600
C401        C  0.95996105  0.42862748  0.02330440     1.11600
O402        O  0.19527168  0.00612985  0.96010292    -0.96600
Zr403      Zr  0.13155537  0.00275603  0.98356125     1.88900
O404        O  0.09793822  0.50681307  0.03317726    -0.73300
O405        O  0.03245718  0.41338971  0.98380434    -0.52500
O406        O  0.15932022  0.46948855  0.98750252    -0.97200
O407        O  0.21181509  0.04586860  0.98610585    -0.54400
O408        O  0.15570830  0.00171640  0.01592994    -0.73800
C409        C  0.14206196  0.50757274  0.03087281     0.98500
O410        O  0.98447406  0.49824794  0.04373255    -0.62600
O411        O  0.03851709  0.08706405  0.97159519    -0.57400
O412        O  0.01281317  0.03367443  0.02715141    -0.94100
O413        O  0.05242438  0.07051298  0.00688571    -0.92500
O414        O  0.90509575  0.02692719  0.96568953    -0.92900
O415        O  0.87135092  0.49094176  0.99412344    -0.91700
C416        C  0.02929819  0.05934406  0.02255429     1.17400
H417        H  0.99748872  0.03544953  0.94702055     0.33300
H418        H  0.92800949  0.45717309  0.99959393     0.44200
H419        H  0.11974035  0.04087384  0.00844417     0.37700
H420        H  0.08980733  0.46819558  0.95426965     0.34200
H421        H  0.83064813  0.45627223  0.96289928     0.26000
H422        H  0.00749386  0.39532706  0.97867271     0.31900
H423        H  0.13589777  0.45757598  0.99768073     0.37800
H424        H  0.92777657  0.04199707  0.97405484     0.32300
H425        H  0.07014972  0.10502062  0.96988938     0.31200
H426        H  0.14937692  0.10306681  0.99270256     0.32800
H427        H  0.20835570  0.05420255  0.99792695     0.31800
H428        H  0.89198526  0.50277024  0.00449081     0.35800
H429        H  0.93805913  0.97779772  0.04200212     0.28500
H430        H  0.08241284  0.00006513  0.90381636     0.32800
H431        H  0.22569418  0.00815495  0.96732602     0.35600
H432        H  0.02303101  0.08281600  0.95894130     0.28200
H433        H  0.99983284  0.49052642  0.05298883     0.41100
H434        H  0.90456269  0.40937328  0.95671383     0.31200
H435        H  0.86395978  0.44239183  0.95628041     0.38800
H436        H  0.21004202  0.05814176  0.97601422     0.30600
H437        H  0.06324882  0.41989874  0.97547634     0.30700
H438        H  0.12332089  0.49972351  0.91630570     0.31000
Zr439      Zr  0.34820865  0.33661194  0.68015688     2.17500
O440        O  0.35648169  0.30883422  0.70591482    -0.51400
O441        O  0.33930902  0.36967083  0.69990028    -0.74600
O442        O  0.43210158  0.35988886  0.69455138    -0.81400
O443        O  0.20150993  0.28744055  0.67722636    -0.83100
O444        O  0.49271171  0.37722120  0.67115633    -0.78800
O445        O  0.26998517  0.30605241  0.69672881    -0.90400
O446        O  0.33112254  0.40078209  0.68043220    -0.76400
O447        O  0.39415481  0.37923178  0.66319642    -0.85800
O448        O  0.28399962  0.34533911  0.66570357    -0.85500
O449        O  0.40284590  0.32823162  0.65895437    -0.72300
O450        O  0.30034106  0.29727554  0.66102217    -0.84400
Zr451      Zr  0.33562521  0.34117409  0.60663006     2.26400
Zr452      Zr  0.44714270  0.37090437  0.64137471     2.06300
Zr453      Zr  0.23678682  0.30664894  0.64608126     2.10000
Zr454      Zr  0.32998263  0.38737028  0.64813912     1.78800
O455        O  0.18216772  0.25699165  0.64301358    -0.93200
O456        O  0.39550260  0.43592044  0.64810267    -0.41000
O457        O  0.28139982  0.34915229  0.62822583    -0.77700
O458        O  0.38402884  0.38054712  0.62591843    -0.96400
O459        O  0.39994923  0.33264285  0.62129307    -0.89700
O460        O  0.28983305  0.29867340  0.62381024    -0.92500
C461        C  0.33412557  0.39142434  0.69680602     1.01200
C462        C  0.22197542  0.29049993  0.69355111     1.14200
C463        C  0.47896068  0.37207281  0.68858941     1.05000
O464        O  0.50619225  0.42020745  0.64375916    -0.94700
O465        O  0.48177730  0.38965257  0.61038005    -0.90400
O466        O  0.41449859  0.37224447  0.58998431    -0.83600
C467        C  0.46216656  0.38725949  0.59398595     1.11600
O468        O  0.35845206  0.25940756  0.66291770    -0.96600
Zr469      Zr  0.35443244  0.29043760  0.63860475     1.88900
O470        O  0.34787516  0.30879343  0.58696871    -0.73300
O471        O  0.51629941  0.35903816  0.63526262    -0.52500
O472        O  0.43612992  0.28870951  0.63761263    -0.97200
O473        O  0.28804101  0.24262651  0.63484862    -0.54400
O474        O  0.36613735  0.28098087  0.60627443    -0.73800
C475        C  0.36078008  0.28960552  0.58994172     0.98500
O476        O  0.31910014  0.36433150  0.57979929    -0.62600
O477        O  0.16541591  0.31709917  0.65129242    -0.57400
O478        O  0.24898078  0.32084538  0.59384602    -0.94100
O479        O  0.18911468  0.30182780  0.61737395    -0.92500
O480        O  0.24759557  0.38795321  0.65097906    -0.92900
O481        O  0.32177808  0.41759226  0.62424074    -0.91700
C482        C  0.20211194  0.30832265  0.60004469     1.17400
H483        H  0.26132690  0.34694942  0.67492469     0.33300
H484        H  0.40079204  0.39726828  0.61824764     0.44200
H485        H  0.26900184  0.28382556  0.61553439     0.37700
H486        H  0.42697932  0.32422678  0.66590710     0.34200
H487        H  0.40605406  0.44000770  0.66137018     0.26000
H488        H  0.54839531  0.37606734  0.63812551     0.31900
H489        H  0.45401057  0.29934245  0.62607352     0.37800
H490        H  0.25563993  0.40514216  0.65779115     0.32300
H491        H  0.13485280  0.29880052  0.65342861     0.31200
H492        H  0.14689432  0.25399228  0.64608025     0.32800
H493        H  0.27559963  0.24166738  0.62181256     0.31800
H494        H  0.30669147  0.40552623  0.61331843     0.35800
H495        H  0.34050828  0.38443211  0.58181453     0.28500
H496        H  0.36651785  0.32093081  0.71699221     0.32800
H497        H  0.36425886  0.24536456  0.65615527     0.35600
H498        H  0.17188033  0.32601359  0.66368859     0.28200
H499        H  0.33496035  0.36022731  0.56877771     0.41100
H500        H  0.49715847  0.42555014  0.65590540     0.31200
H501        H  0.42591645  0.43628017  0.64172612     0.38800
H502        H  0.25887089  0.24077569  0.64287400     0.30600
H503        H  0.51304685  0.34570108  0.64546555     0.30700
H504        H  0.38732479  0.30664284  0.70274930     0.31000
C505        C  0.90261011  0.17187226  0.80041483    -0.12300
C506        C  0.87707341  0.18103682  0.78762461     0.04700
C507        C  0.90410949  0.19612819  0.77135571    -0.07600
C508        C  0.95571598  0.20223180  0.76853700    -0.08400
C509        C  0.98202771  0.19392578  0.78167886    -0.02900
C510        C  0.95427015  0.17812657  0.79770744     0.03900
N511        N  0.97770333  0.16877559  0.81176628     0.66400
H512        H  0.88257787  0.16010022  0.81295108     0.15300
H513        H  0.97551656  0.21423852  0.75606177     0.15000
N514        N  0.88119373  0.20694735  0.75806761     0.74100
O515        O  0.99688254  0.18345165  0.82599749    -0.39300
O516        O  0.96651170  0.14345768  0.81255839    -0.39300
O517        O  0.89189445  0.23215407  0.75876474    -0.40000
O518        O  0.86317830  0.19407178  0.74307679    -0.40100
C519        C  0.11548457  0.23787130  0.72599466    -0.12300
C520        C  0.13918676  0.24603150  0.74355826     0.04700
C521        C  0.18726211  0.26985459  0.74451200    -0.07600
C522        C  0.21181505  0.28419516  0.72807668    -0.08400
C523        C  0.18992480  0.27547677  0.71028722    -0.02900
C524        C  0.14045025  0.25220625  0.70936144     0.03900
N525        N  0.11627360  0.24176541  0.69178642     0.66400
H526        H  0.07833160  0.21953262  0.72508801     0.15300
H527        H  0.24921460  0.30218692  0.72940845     0.15000
N528        N  0.21199864  0.28010195  0.76201296     0.74100
O529        O  0.12296463  0.22304363  0.68402294    -0.39300
O530        O  0.07908397  0.24588338  0.68671537    -0.39300
O531        O  0.25460399  0.28031037  0.76504815    -0.40000
O532        O  0.20106230  0.29651959  0.77091731    -0.40100
C533        C  0.42807834  0.18136982  0.82657250    -0.12300
C534        C  0.44774546  0.16808363  0.83875476     0.04700
C535        C  0.41806036  0.15352242  0.85468688    -0.07600
C536        C  0.36950268  0.15191538  0.85782971    -0.08400
C537        C  0.34898306  0.16462900  0.84545597    -0.02900
C538        C  0.37963135  0.17999860  0.82976262     0.03900
N539        N  0.36304228  0.19471256  0.81698848     0.66400
H540        H  0.45065730  0.19309625  0.81441426     0.15300
H541        H  0.34724016  0.13984955  0.86991600     0.15000
N542        N  0.43499790  0.13883200  0.86730844     0.74100
O543        O  0.37485927  0.21963340  0.82020102    -0.39300
O544        O  0.34984773  0.18573490  0.80059995    -0.39300
O545        O  0.45002919  0.14828416  0.88347064    -0.40000
O546        O  0.42203122  0.11370901  0.86433735    -0.40100
C547        C  0.22191921  0.19301839  0.81265441    -0.12300
C548        C  0.19249444  0.17125233  0.82529173     0.04700
C549        C  0.13799433  0.15966475  0.82483985    -0.07600
C550        C  0.11482847  0.17058154  0.81241693    -0.08400
C551        C  0.14425685  0.19277806  0.79996218    -0.02900
C552        C  0.19869124  0.20372548  0.80006392     0.03900
N553        N  0.23175982  0.22635562  0.78806974     0.66400
H554        H  0.26369899  0.20235266  0.81271806     0.15300
H555        H  0.07306955  0.16111298  0.81243709     0.15000
N556        N  0.10505670  0.13604857  0.83622494     0.74100
O557        O  0.25708488  0.24985187  0.79524427    -0.39300
O558        O  0.24804422  0.22123255  0.77295266    -0.39300
O559        O  0.08242214  0.13935656  0.85033548    -0.40000
O560        O  0.08758110  0.11225248  0.82931704    -0.40100
C561        C  0.13914385  0.10475305  0.88229192    -0.12300
C562        C  0.19088676  0.12423488  0.88490348     0.04700
C563        C  0.21266031  0.12649579  0.90291330    -0.07600
C564        C  0.18231826  0.10945315  0.91784315    -0.08400
C565        C  0.13104834  0.08939895  0.91499840    -0.02900
C566        C  0.10947184  0.08716938  0.89696249     0.03900
N567        N  0.05761055  0.06695538  0.89317276     0.66400
H568        H  0.12184526  0.10245608  0.86854369     0.15300
H569        H  0.19974979  0.11096897  0.93149533     0.15000
N570        N  0.26530501  0.14579952  0.90634213     0.74100
O571        O  0.02216762  0.07392830  0.89385820    -0.39300
O572        O  0.04990218  0.04544082  0.88445023    -0.39300
O573        O  0.27541320  0.16817638  0.91436309    -0.40000
O574        O  0.29897293  0.13750193  0.90604443    -0.40100
C575        C  0.95906145  0.30617802  0.82440911    -0.12300
C576        C  0.97523932  0.31126768  0.84312652     0.04700
C577        C  0.94610924  0.29103695  0.85713521    -0.07600
C578        C  0.89997208  0.26763818  0.85239918    -0.08400
C579        C  0.88173278  0.26397187  0.83393278    -0.02900
C580        C  0.91280941  0.28295305  0.81975679     0.03900
N581        N  0.89836680  0.27879457  0.80046399     0.66400
H582        H  0.98090650  0.32107213  0.81336875     0.15300
H583        H  0.87719419  0.25289345  0.86338064     0.15000
N584        N  0.96260089  0.29381879  0.87623611     0.74100
O585        O  0.87762824  0.29228985  0.79306256    -0.39300
O586        O  0.91887712  0.26814761  0.78999315    -0.39300
O587        O  0.93954413  0.30073865  0.88840062    -0.40000
O588        O  0.98898743  0.28219770  0.88159335    -0.40100
C589        C  0.03335673  0.38079203  0.90136995    -0.12300
C590        C  0.03449319  0.39163433  0.88319593     0.04700
C591        C  0.02651681  0.41498945  0.88093542    -0.07600
C592        C  0.01846448  0.42729459  0.89662202    -0.08400
C593        C  0.01942861  0.41750481  0.91492256    -0.02900
C594        C  0.02664149  0.39376299  0.91728590     0.03900
N595        N  0.03073349  0.38368003  0.93555213     0.66400
H596        H  0.03957482  0.36280662  0.90323740     0.15300
H597        H  0.01275302  0.44534217  0.89434702     0.15000
N598        N  0.02672500  0.42684221  0.86284874     0.74100
O599        O  0.99122774  0.36423589  0.94322948    -0.39300
O600        O  0.07482863  0.38943730  0.94182044    -0.39300
O601        O  0.98524024  0.41731927  0.85373481    -0.40000
O602        O  0.06114442  0.45128293  0.85925889    -0.40100
C603        C  0.37200176  0.02843343  0.79936489    -0.12300
C604        C  0.36037017  0.02397841  0.78017634     0.04700
C605        C  0.38814049  0.04599411  0.76717156    -0.07600
C606        C  0.42855169  0.07100166  0.77338025    -0.08400
C607        C  0.44224824  0.07454049  0.79236741    -0.02900
C608        C  0.41254164  0.05324364  0.80550569     0.03900
N609        N  0.42352369  0.05628554  0.82515359     0.66400
H610        H  0.35108743  0.01205229  0.80968579     0.15300
H611        H  0.45097381  0.08721790  0.76314323     0.15000
N612        N  0.37595840  0.04358556  0.74765684     0.74100
O613        O  0.39840088  0.06430427  0.83559100    -0.39300
O614        O  0.44759342  0.04454489  0.83253649    -0.39300
O615        O  0.34130795  0.04946414  0.74203303    -0.40000
O616        O  0.40929314  0.04452619  0.73599479    -0.40100
C617        C  0.14998835  0.38552430  0.81242998    -0.12300
C618        C  0.13191229  0.39896775  0.82479622     0.04700
C619        C  0.15660230  0.42837140  0.82409784    -0.07600
C620        C  0.19785635  0.44328680  0.81160329    -0.08400
C621        C  0.21575133  0.42999316  0.79915445    -0.02900
C622        C  0.19119188  0.40050930  0.79975227     0.03900
N623        N  0.20790021  0.38517782  0.78800674     0.66400
H624        H  0.13245641  0.36309028  0.81269618     0.15300
H625        H  0.21493535  0.46570674  0.81133058     0.15000
N626        N  0.13821908  0.44382027  0.83484073     0.74100
O627        O  0.23889345  0.37718310  0.79454391    -0.39300
O628        O  0.18135115  0.37326876  0.77386892    -0.39300
O629        O  0.16284395  0.45596256  0.84926745    -0.40000
O630        O  0.11048988  0.45274361  0.82668331    -0.40100
C631        C  0.30171743  0.40910398  0.74457450    -0.12300
C632        C  0.31762811  0.43759477  0.74221194     0.04700
C633        C  0.34330669  0.45103387  0.72529094    -0.07600
C634        C  0.34924069  0.43559921  0.71091343    -0.08400
C635        C  0.33100867  0.40695077  0.71305060    -0.02900
C636        C  0.30832574  0.39380899  0.73033109     0.03900
N637        N  0.28892462  0.36468932  0.73339533     0.66400
H638        H  0.28345907  0.39830462  0.75758292     0.15300
H639        H  0.36797950  0.44617273  0.69787229     0.15000
N640        N  0.36348124  0.48014233  0.72217537     0.74100
O641        O  0.31577512  0.35613609  0.74255572    -0.39300
O642        O  0.24114862  0.34893399  0.73172188    -0.39300
O643        O  0.41189933  0.49487840  0.72134613    -0.40000
O644        O  0.33519863  0.48902253  0.71439032    -0.40100
C645        C  0.70595668  0.03028809  0.83589720    -0.12300
C646        C  0.75755715  0.03794436  0.83978185     0.04700
C647        C  0.79222508  0.06611416  0.84255584    -0.07600
C648        C  0.77502579  0.08612971  0.84061497    -0.08400
C649        C  0.72327107  0.07856977  0.83627019    -0.02900
C650        C  0.68831724  0.04993724  0.83433881     0.03900
N651        N  0.63459145  0.04002659  0.83078732     0.66400
H652        H  0.67855507  0.00860816  0.83421106     0.15300
H653        H  0.80275204  0.10774824  0.84217589     0.15000
N654        N  0.84539289  0.07495115  0.84647699     0.74100
O655        O  0.61815659  0.03267226  0.81438180    -0.39300
O656        O  0.60305167  0.03107693  0.84445442    -0.39300
O657        O  0.87829994  0.08507654  0.83328921    -0.40000
O658        O  0.86038752  0.07924417  0.86328290    -0.40100
C659        C  0.87104312  0.97872897  0.87249621    -0.12300
C660        C  0.83500417  0.98867152  0.87456699     0.04700
C661        C  0.82784480  0.99742694  0.89240893    -0.07600
C662        C  0.85701486  0.99645766  0.90758710    -0.08400
C663        C  0.89430289  0.98734147  0.90551969    -0.02900
C664        C  0.89298123  0.47655131  0.89007284     0.03900
N665        N  0.91282049  0.45711852  0.89005338     0.66400
H666        H  0.85708173  0.46346609  0.86326815     0.15300
H667        H  0.85109740  0.00361051  0.92105874     0.15000
N668        N  0.79046629  0.00690477  0.89557232     0.74100
O669        O  0.88446607  0.43267098  0.89602702    -0.39300
O670        O  0.97988656  0.98363385  0.87652031    -0.39300
O671        O  0.79054160  0.52628525  0.90068151    -0.40000
O672        O  0.80463785  0.03258335  0.89463312    -0.40100
C673        C  0.61316293  0.29743034  0.76110519    -0.12300
C674        C  0.60168481  0.31109083  0.77548039     0.04700
C675        C  0.58676094  0.29811392  0.79340632    -0.07600
C676        C  0.58789938  0.27312057  0.79704665    -0.08400
C677        C  0.60300580  0.26058441  0.78303819    -0.02900
C678        C  0.61411920  0.27236911  0.76476686     0.03900
N679        N  0.62895922  0.25995424  0.75005712     0.66400
H680        H  0.62407182  0.30694472  0.74719309     0.15300
H681        H  0.57881181  0.26397171  0.81111167     0.15000
N682        N  0.56950429  0.30969075  0.80794440     0.74100
O683        O  0.59562014  0.24519729  0.73831927    -0.39300
O684        O  0.67625496  0.26914681  0.74610940    -0.39300
O685        O  0.52161073  0.30080709  0.81041859    -0.40000
O686        O  0.59999277  0.32266173  0.82095906    -0.40100
C687        C  0.70885240  0.40694207  0.80513533    -0.12300
C688        C  0.67175066  0.40881262  0.79344210     0.04700
C689        C  0.66427959  0.43247296  0.79465760    -0.07600
C690        C  0.69373503  0.45349592  0.80704349    -0.08400
C691        C  0.73164994  0.45211169  0.81856671    -0.02900
C692        C  0.73877366  0.42821317  0.81754974     0.03900
N693        N  0.77673821  0.42525976  0.82856046     0.66400
H694        H  0.71553031  0.38903844  0.80440067     0.15300
H695        H  0.68609421  0.47108294  0.80762069     0.15000
N696        N  0.62558513  0.43524823  0.78397713     0.74100
O697        O  0.76256604  0.41008040  0.84323863    -0.39300
O698        O  0.81992129  0.43114393  0.82112158    -0.39300
O699        O  0.58268967  0.42916594  0.79173880    -0.40000
O700        O  0.63884918  0.45044960  0.76930342    -0.40100
C701        C  0.55007385  0.39062430  0.73480496    -0.12300
C702        C  0.57975866  0.37666837  0.73328426     0.04700
C703        C  0.58160906  0.36495564  0.71589408    -0.07600
C704        C  0.55229275  0.36639183  0.70077303    -0.08400
C705        C  0.51904769  0.37811599  0.70288227    -0.02900
C706        C  0.51880047  0.39082858  0.71998191     0.03900
N707        N  0.48526198  0.40286583  0.72287062     0.66400
H708        H  0.54793325  0.39954271  0.74807375     0.15300
H709        H  0.55239684  0.35627914  0.68779300     0.15000
N710        N  0.61109758  0.35043485  0.71354102     0.74100
O711        O  0.44162402  0.38838772  0.73054562    -0.39300
O712        O  0.50396877  0.42891441  0.72242097    -0.39300
O713        O  0.58805863  0.32426925  0.71380853    -0.40000
O714        O  0.65565294  0.36307454  0.70621911    -0.40100
C715        C  0.09751322  0.13379976  0.44782678    -0.12300
C716        C  0.06886749  0.11040576  0.43711545     0.04700
C717        C  0.03617601  0.11170671  0.42308554    -0.07600
C718        C  0.02924473  0.13530607  0.42115868    -0.08400
C719        C  0.05369537  0.15785520  0.43324639    -0.02900
C720        C  0.09004568  0.15734886  0.44617604     0.03900
N721        N  0.11824136  0.17977248  0.45839066     0.66400
H722        H  0.12251573  0.13291353  0.45876234     0.15300
H723        H  0.00179350  0.13504390  0.41086533     0.15000
N724        N  0.00774986  0.08867219  0.41127387     0.74100
O725        O  0.11166633  0.17520302  0.47589443    -0.39300
O726        O  0.15999502  0.19960119  0.45241204    -0.39300
O727        O  0.96005013  0.07364291  0.41430064    -0.40000
O728        O  0.02668597  0.08784997  0.39548086    -0.40100
C729        C  0.02857431  0.38991873  0.52975537    -0.12300
C730        C  0.99351205  0.38946234  0.51627279     0.04700
C731        C  0.96132968  0.36435999  0.50753582    -0.07600
C732        C  0.96798880  0.34077326  0.51112477    -0.08400
C733        C  0.00574748  0.34159781  0.52376340    -0.02900
C734        C  0.03456087  0.36638470  0.53379565     0.03900
N735        N  0.07316709  0.36902794  0.54705067     0.66400
H736        H  0.05382976  0.40924857  0.53643168     0.15300
H737        H  0.94469177  0.32204143  0.50351272     0.15000
N738        N  0.92497650  0.36329705  0.49376873     0.74100
O739        O  0.11943572  0.37853105  0.54151787    -0.39300
O740        O  0.06371292  0.36884005  0.56439734    -0.39300
O741        O  0.93959973  0.37012755  0.47690137    -0.40000
O742        O  0.88213071  0.36123461  0.49907735    -0.40100
C743        C  0.99360252  0.24584747  0.46313677    -0.12300
C744        C  0.01103018  0.22579982  0.46550154     0.04700
C745        C  0.02566029  0.22171164  0.48374866    -0.07600
C746        C  0.02577240  0.23846002  0.49844666    -0.08400
C747        C  0.01152596  0.25960466  0.49580777    -0.02900
C748        C  0.99328273  0.26242282  0.47795217     0.03900
N749        N  0.97440182  0.28192714  0.47439706     0.66400
H750        H  0.98072549  0.24924637  0.44952505     0.15300
H751        H  0.03785612  0.23481868  0.51214356     0.15000
N752        N  0.04083994  0.20089490  0.48795559     0.74100
O753        O  0.00458408  0.30546707  0.46741237    -0.39300
O754        O  0.92627462  0.27331719  0.47354948    -0.39300
O755        O  0.08482934  0.20832830  0.49494637    -0.40000
O756        O  0.00617536  0.17622342  0.49065646    -0.40100
C757        C  0.08130676  0.29994886  0.57487561    -0.12300
C758        C  0.09138717  0.29430873  0.55660797     0.04700
C759        C  0.13475572  0.28998255  0.55340199    -0.07600
C760        C  0.16944938  0.29403903  0.56792751    -0.08400
C761        C  0.16089114  0.30111355  0.58597462    -0.02900
C762        C  0.11486105  0.30269535  0.58964403     0.03900
N763        N  0.10258696  0.30830680  0.60799565     0.66400
H764        H  0.04747865  0.30261488  0.57766036     0.15300
H765        H  0.20380784  0.29197032  0.56496996     0.15000
N766        N  0.14574142  0.28274409  0.53534453     0.74100
O767        O  0.11345364  0.33284824  0.61200979    -0.39300
O768        O  0.07016641  0.28851761  0.61808507    -0.39300
O769        O  0.18053332  0.30120112  0.52512128    -0.40000
O770        O  0.13182903  0.25757692  0.53212970    -0.40100
C771        C  0.74535858  0.35153059  0.46257920    -0.12300
C772        C  0.75063535  0.33506020  0.44860608     0.04700
C773        C  0.79753104  0.34617329  0.43801717    -0.07600
C774        C  0.83753680  0.37243067  0.44196559    -0.08400
C775        C  0.83273565  0.38834052  0.45630228    -0.02900
C776        C  0.78560570  0.37787015  0.46646860     0.03900
N777        N  0.77707703  0.39403616  0.48029671     0.66400
H778        H  0.70968736  0.34403449  0.47061117     0.15300
H779        H  0.87346100  0.38003631  0.43405651     0.15000
N780        N  0.80641293  0.33105985  0.42350166     0.74100
O781        O  0.75621357  0.40881359  0.47542647    -0.39300
O782        O  0.77804249  0.38825352  0.49751083    -0.39300
O783        O  0.80451998  0.33773714  0.40653959    -0.40000
O784        O  0.82942778  0.31703609  0.42747870    -0.40100
C785        C  0.26706608  0.12493471  0.48698922    -0.12300
C786        C  0.22403004  0.11518314  0.49921833     0.04700
C787        C  0.22727663  0.13082015  0.51526190    -0.07600
C788        C  0.27215813  0.15550881  0.51852911    -0.08400
C789        C  0.31512510  0.16548722  0.50624941    -0.02900
C790        C  0.31222293  0.14957733  0.49031902     0.03900
N791        N  0.35410868  0.15793503  0.47717393     0.66400
H792        H  0.26607235  0.11324385  0.47469393     0.15300
H793        H  0.27297862  0.16694117  0.53093490     0.15000
N794        N  0.18512704  0.12251017  0.52826693     0.74100
O795        O  0.38326847  0.14673482  0.47829071    -0.39300
O796        O  0.35250713  0.16961153  0.46188106    -0.39300
O797        O  0.18573684  0.11034618  0.54346423    -0.40000
O798        O  0.15575610  0.13355514  0.52694820    -0.40100
C799        C  0.48909588  0.22817805  0.47430155    -0.12300
C800        C  0.49525991  0.23650811  0.49310189     0.04700
C801        C  0.54524004  0.25537616  0.49915876    -0.07600
C802        C  0.58697954  0.26588823  0.48635696    -0.08400
C803        C  0.58050454  0.25770202  0.46750753    -0.02900
C804        C  0.53069363  0.23844532  0.46157855     0.03900
N805        N  0.52069341  0.22998072  0.44248542     0.66400
H806        H  0.45119846  0.21405564  0.46915041     0.15300
H807        H  0.62496867  0.28025790  0.49133207     0.15000
N808        N  0.55504550  0.26337449  0.51832798     0.74100
O809        O  0.51680136  0.20675680  0.43816797    -0.39300
O810        O  0.50176478  0.24144301  0.43170838    -0.39300
O811        O  0.57079942  0.25043768  0.52920089    -0.40000
O812        O  0.56252066  0.28727717  0.52266391    -0.40100
C813        C  0.34956826  0.25535912  0.54290117    -0.12300
C814        C  0.39189316  0.24975042  0.54360914     0.04700
C815        C  0.42488243  0.25859963  0.55920466    -0.07600
C816        C  0.41409896  0.27167283  0.57403977    -0.08400
C817        C  0.37137170  0.27674199  0.57354274    -0.02900
C818        C  0.33959747  0.26915336  0.55758835     0.03900
N819        N  0.29615914  0.27443096  0.55646894     0.66400
H820        H  0.32384884  0.24871533  0.53099004     0.15300
H821        H  0.43923505  0.27776787  0.58612669     0.15000
N822        N  0.46789926  0.25314057  0.56076727     0.74100
O823        O  0.30053313  0.29568505  0.54759354    -0.39300
O824        O  0.25737942  0.26106133  0.56708243    -0.39300
O825        O  0.51279102  0.27287585  0.55822108    -0.40000
O826        O  0.46226633  0.23170081  0.56971484    -0.40100
C827        C  0.33630038  0.02105672  0.46839189    -0.12300
C828        C  0.35210006  0.02667891  0.44939441     0.04700
C829        C  0.31937223  0.03095435  0.43653596    -0.07600
C830        C  0.27234853  0.02886417  0.44269596    -0.08400
C831        C  0.25628277  0.02245275  0.46142803    -0.02900
C832        C  0.28903681  0.01891940  0.47447129     0.03900
N833        N  0.22851171  0.47080970  0.45883968     0.66400
H834        H  0.32701957  0.48657555  0.45513398     0.15300
H835        H  0.24735717  0.03148571  0.43250430     0.15000
N836        N  0.33218994  0.03736706  0.41711415     0.74100
O837        O  0.20754884  0.45777575  0.44417168    -0.39300
O838        O  0.22524793  0.45735374  0.47385482    -0.39300
O839        O  0.31869821  0.01762536  0.40585069    -0.40000
O840        O  0.33809396  0.06049855  0.41091252    -0.40100
C841        C  0.73022417  0.48718857  0.48933001    -0.12300
C842        C  0.69957491  0.46597136  0.50217390     0.04700
C843        C  0.72081469  0.44963965  0.51030199    -0.07600
C844        C  0.77144465  0.45525783  0.50585312    -0.08400
C845        C  0.80237534  0.47686912  0.49331359    -0.02900
C846        C  0.78069307  0.49275200  0.48482547     0.03900
N847        N  0.80041459  0.00601558  0.46489732     0.66400
H848        H  0.70940410  0.99465397  0.47778954     0.15300
H849        H  0.78657179  0.44252060  0.51245115     0.15000
N850        N  0.69174315  0.42680801  0.52280937     0.74100
O851        O  0.79087605  0.99561811  0.44876428    -0.39300
O852        O  0.81899277  0.03193107  0.46632753    -0.39300
O853        O  0.67173672  0.40266375  0.51634430    -0.40000
O854        O  0.70017479  0.42990709  0.54022854    -0.40100
C855        C  0.49940074  0.97784474  0.49040280    -0.12300
C856        C  0.55375486  0.48641217  0.48933107     0.04700
C857        C  0.58187454  0.51152048  0.47903712    -0.07600
C858        C  0.55572813  0.52229903  0.46782555    -0.08400
C859        C  0.49739699  0.00644273  0.46385577    -0.02900
C860        C  0.47205272  0.98767488  0.47899577     0.03900
N861        N  0.41822524  0.97751400  0.48279123     0.66400
H862        H  0.47854553  0.96329662  0.50173595     0.15300
H863        H  0.57822150  0.54180481  0.46030827     0.15000
N864        N  0.63670882  0.52719794  0.48048899     0.74100
O865        O  0.38622147  0.95536048  0.47528414    -0.39300
O866        O  0.40447595  0.98587953  0.49710747    -0.39300
O867        O  0.66483862  0.52806084  0.46675167    -0.40000
O868        O  0.65533242  0.54549036  0.49285523    -0.40100
C869        C  0.51666131  0.39088189  0.56664067    -0.12300
C870        C  0.49612921  0.40345466  0.57848711     0.04700
C871        C  0.50285620  0.43013570  0.57411713    -0.07600
C872        C  0.52884440  0.44368027  0.55750632    -0.08400
C873        C  0.54888161  0.43095647  0.54529648    -0.02900
C874        C  0.54311925  0.40439552  0.55012489     0.03900
N875        N  0.56042057  0.38989900  0.53787812     0.66400
H876        H  0.51038371  0.37002224  0.56986407     0.15300
H877        H  0.53338426  0.46416178  0.55412822     0.15000
N878        N  0.48202755  0.44318568  0.58622692     0.74100
O879        O  0.59386526  0.38326851  0.54376540    -0.39300
O880        O  0.53191046  0.37668304  0.52447093    -0.39300
O881        O  0.50502760  0.45380942  0.60125561    -0.40000
O882        O  0.43604070  0.43874302  0.58407256    -0.40100
C883        C  0.93466422  0.19462737  0.36740751    -0.12300
C884        C  0.89132895  0.19837826  0.37136284     0.04700
C885        C  0.88342907  0.20446617  0.38993977    -0.07600
C886        C  0.91691666  0.20528829  0.40416355    -0.08400
C887        C  0.95891337  0.20020023  0.40049698    -0.02900
C888        C  0.96825410  0.19536673  0.38173174     0.03900
N889        N  0.01185385  0.19158685  0.37681593     0.66400
H890        H  0.94145982  0.18999415  0.35322695     0.15300
H891        H  0.90900604  0.20938018  0.41833995     0.15000
N892        N  0.84214555  0.21040843  0.39463957     0.74100
O893        O  0.00560755  0.16735242  0.37442902    -0.39300
O894        O  0.05153874  0.21188513  0.36993083    -0.39300
O895        O  0.80365152  0.19254310  0.40379553    -0.40000
O896        O  0.85065002  0.23531999  0.39440096    -0.40100
C897        C  0.67085924  0.21085647  0.39601947    -0.12300
C898        C  0.68980895  0.22619596  0.37909221     0.04700
C899        C  0.69949188  0.25416255  0.37836262    -0.07600
C900        C  0.69171492  0.26617689  0.39440788    -0.08400
C901        C  0.67365044  0.25096649  0.41130055    -0.02900
C902        C  0.66235242  0.22287919  0.41199672     0.03900
N903        N  0.64458498  0.20659578  0.42896141     0.66400
H904        H  0.66256811  0.18931656  0.39693818     0.15300
H905        H  0.70027974  0.28777948  0.39366152     0.15000
N906        N  0.71889094  0.27112357  0.36174167     0.74100
O907        O  0.59745210  0.18920779  0.43065917    -0.39300
O908        O  0.67694702  0.20440410  0.43962696    -0.39300
O909        O  0.68788715  0.27506342  0.35136901    -0.40000
O910        O  0.76656292  0.28767739  0.36039755    -0.40100
C911        C  0.51952729  0.08764895  0.37768853    -0.12300
C912        C  0.56510154  0.08639576  0.37380961     0.04700
C913        C  0.57915542  0.06994020  0.38545857    -0.07600
C914        C  0.54828979  0.05580905  0.40103398    -0.08400
C915        C  0.50328843  0.05782638  0.40560095    -0.02900
C916        C  0.48884843  0.07385963  0.39341002     0.03900
N917        N  0.44389993  0.07703052  0.39657711     0.66400
H918        H  0.50863516  0.10046079  0.36885816     0.15300
H919        H  0.56027051  0.04328035  0.40963835     0.15000
N920        N  0.62390908  0.06672956  0.38147489     0.74100
O921        O  0.44794895  0.09700428  0.40637246    -0.39300
O922        O  0.40839819  0.06720398  0.38460501    -0.39300
O923        O  0.66328712  0.07891125  0.39156569    -0.40000
O924        O  0.61893492  0.04630391  0.37200377    -0.40100
C925        C  0.65465062  0.33927888  0.13026601    -0.12300
C926        C  0.62146293  0.33622944  0.11513051     0.04700
C927        C  0.63765454  0.33350283  0.09686491    -0.07600
C928        C  0.68608130  0.33463553  0.09415656    -0.08400
C929        C  0.71926680  0.33812673  0.10927192    -0.02900
C930        C  0.70279825  0.34022659  0.12755748     0.03900
N931        N  0.73541591  0.34503006  0.14346892     0.66400
H932        H  0.64387750  0.34152401  0.14447466     0.15300
H933        H  0.69770922  0.33263484  0.08002029     0.15000
N934        N  0.60564529  0.32929036  0.08085889     0.74100
O935        O  0.76189545  0.36954510  0.14892388    -0.39300
O936        O  0.72659450  0.32515142  0.15475883    -0.39300
O937        O  0.61527458  0.34943197  0.06971451    -0.40000
O938        O  0.57790076  0.30491908  0.07536607    -0.40100
C939        C  0.92609953  0.38972744  0.07000252    -0.12300
C940        C  0.87277410  0.37262143  0.06815957     0.04700
C941        C  0.84914597  0.37296574  0.05088763    -0.07600
C942        C  0.87911667  0.39016189  0.03597792    -0.08400
C943        C  0.93198928  0.40780753  0.03815083    -0.02900
C944        C  0.95553166  0.40756076  0.05535684     0.03900
N945        N  0.00922128  0.42544589  0.05826559     0.66400
H946        H  0.94488108  0.39017154  0.08319997     0.15300
H947        H  0.86051119  0.39063269  0.02290409     0.15000
N948        N  0.79497933  0.35621929  0.04819766     0.74100
O949        O  0.02275367  0.44794256  0.06665220    -0.39300
O950        O  0.04070821  0.41577386  0.05691904    -0.39300
O951        O  0.76582090  0.36745951  0.04847361    -0.40000
O952        O  0.77915136  0.33288583  0.04073465    -0.40100
C953        C  0.10366853  0.31981069  0.15603677    -0.12300
C954        C  0.08330134  0.30794185  0.17382820     0.04700
C955        C  0.11611116  0.30349788  0.18652387    -0.07600
C956        C  0.16628415  0.30943483  0.18090145    -0.08400
C957        C  0.18585833  0.32020550  0.16283123    -0.02900
C958        C  0.15404739  0.32606517  0.15049830     0.03900
N959        N  0.17217595  0.33887665  0.13240120     0.66400
H960        H  0.08014077  0.32400769  0.14605342     0.15300
H961        H  0.18985170  0.30517389  0.19083291     0.15000
N962        N  0.09997670  0.29349610  0.20534646     0.74100
O963        O  0.16122722  0.32386998  0.11810830    -0.39300
O964        O  0.18607414  0.36441743  0.13022847    -0.39300
O965        O  0.08802865  0.26863509  0.20954571    -0.40000
O966        O  0.11097537  0.31075829  0.21832947    -0.40100
C967        C  0.94084651  0.31532350  0.13713599    -0.12300
C968        C  0.91982664  0.30691319  0.15531760     0.04700
C969        C  0.87233976  0.30674587  0.15951261    -0.07600
C970        C  0.84789509  0.31517873  0.14575666    -0.08400
C971        C  0.86933546  0.32394882  0.12762030    -0.02900
C972        C  0.91644140  0.32360837  0.12338373     0.03900
N973        N  0.94016853  0.33109702  0.10514337     0.66400
H974        H  0.97668418  0.31526953  0.13334408     0.15300
H975        H  0.81205990  0.31521263  0.14952453     0.15000
N976        N  0.84898026  0.29916001  0.17779280     0.74100
O977        O  0.97654799  0.35526353  0.10228000    -0.39300
O978        O  0.93501570  0.31215644  0.09408861    -0.39300
O979        O  0.85478827  0.31808289  0.18896820    -0.40000
O980        O  0.81166588  0.27523721  0.18045460    -0.40100
C981        C  0.94674259  0.26397823  0.23050947    -0.12300
C982        C  0.92569828  0.25556853  0.21263285     0.04700
C983        C  0.87996263  0.23047307  0.21094653    -0.07600
C984        C  0.85524222  0.21483771  0.22705885    -0.08400
C985        C  0.87428668  0.22386040  0.24520992    -0.02900
C986        C  0.92138624  0.24860634  0.24677798     0.03900
N987        N  0.94294266  0.25928491  0.26464450     0.66400
H988        H  0.98218780  0.28320201  0.23192183     0.15300
H989        H  0.81999686  0.19565035  0.22523272     0.15000
N990        N  0.85852771  0.22016009  0.19297577     0.74100
O991        O  0.97848341  0.25463283  0.27095361    -0.39300
O992        O  0.93703830  0.27895292  0.27125547    -0.39300
O993        O  0.86595525  0.20127062  0.18585618    -0.40000
O994        O  0.82196376  0.22417963  0.18699982    -0.40100
C995        C  0.69725679  0.47221407  0.15534200    -0.12300
C996        C  0.70222291  0.48212588  0.17371598     0.04700
C997        C  0.66775505  0.46416810  0.18783683    -0.07600
C998        C  0.62700985  0.43833262  0.18293218    -0.08400
C999        C  0.61984148  0.42975791  0.16423078    -0.02900
C1000       C  0.65653010  0.44653385  0.15051550     0.03900
N1001       N  0.65199490  0.43831005  0.13137803     0.66400
H1002       H  0.72332421  0.48511009  0.14426493     0.15300
H1003       H  0.59930278  0.42554578  0.19365450     0.15000
N1004       N  0.67292970  0.47173237  0.20716456     0.74100
O1005       O  0.63314423  0.44858609  0.11961348    -0.39300
O1006       O  0.67918839  0.42757203  0.12552092    -0.39300
O1007       O  0.64469538  0.48131337  0.21386018    -0.40000
O1008       O  0.69428486  0.46200022  0.21827474    -0.40100
C1009       C  0.75187449  0.10497900  0.22556945    -0.12300
C1010       C  0.73547321  0.09011164  0.24272871     0.04700
C1011       C  0.72648044  0.06222952  0.24347079    -0.07600
C1012       C  0.73365208  0.05007419  0.22727017    -0.08400
C1013       C  0.75072130  0.06515201  0.21022492    -0.02900
C1014       C  0.75991233  0.09299968  0.20952259     0.03900
N1015       N  0.77612254  0.10939454  0.19255828     0.66400
H1016       H  0.75926921  0.12637270  0.22453835     0.15300
H1017       H  0.72677620  0.02876585  0.22818295     0.15000
N1018       N  0.70987691  0.04576949  0.26041022     0.74100
O1019       O  0.74238214  0.11001887  0.18183073    -0.39300
O1020       O  0.82218678  0.12833267  0.19101647    -0.39300
O1021       O  0.66368068  0.02698061  0.26190998    -0.40000
O1022       O  0.74335288  0.04498477  0.27120910    -0.40100
C1023       C  0.11539111  0.20979057  0.09712470    -0.12300
C1024       C  0.09730995  0.18753322  0.11021650     0.04700
C1025       C  0.12480955  0.19059400  0.12698796    -0.07600
C1026       C  0.17078912  0.21477055  0.12986970    -0.08400
C1027       C  0.19025472  0.23659876  0.11650851    -0.02900
C1028       C  0.16094502  0.23445145  0.10029501     0.03900
N1029       N  0.17769601  0.25646293  0.08657317     0.66400
H1030       H  0.09437561  0.20786861  0.08423587     0.15300
H1031       H  0.19204376  0.21621415  0.14263227     0.15000
N1032       N  0.10827736  0.16899759  0.14097645     0.74100
O1033       O  0.20247468  0.25575573  0.07222715    -0.39300
O1034       O  0.15725032  0.27234966  0.08646591    -0.39300
O1035       O  0.12407563  0.15113087  0.13990269    -0.40000
O1036       O  0.09353441  0.17312282  0.15673884    -0.40100
C1037       C  0.88532278  0.09618048  0.15723859    -0.12300
C1038       C  0.84466363  0.07117119  0.15121279     0.04700
C1039       C  0.84579038  0.06355021  0.13237675    -0.07600
C1040       C  0.88719256  0.08060308  0.12036766    -0.08400
C1041       C  0.92866242  0.10546165  0.12652958    -0.02900
C1042       C  0.92672253  0.11315680  0.14531982     0.03900
N1043       N  0.96737719  0.13731873  0.15315193     0.66400
H1044       H  0.88590202  0.10255895  0.17162197     0.15300
H1045       H  0.88661810  0.07405906  0.10603704     0.15000
N1046       N  0.80480851  0.03904761  0.12490459     0.74100
O1047       O  0.99713671  0.13412482  0.16459295    -0.39300
O1048       O  0.96240272  0.15905579  0.15387423    -0.39300
O1049       O  0.76903164  0.04087763  0.11614812    -0.40000
O1050       O  0.81160136  0.01808753  0.12258610    -0.40100
C1051       C  0.06296862  0.10397375  0.03945621    -0.12300
C1052       C  0.02239038  0.07733975  0.03651805     0.04700
C1053       C  0.97745368  0.06784910  0.04785605    -0.07600
C1054       C  0.97524344  0.08414282  0.06245930    -0.08400
C1055       C  0.01721407  0.11003997  0.06640403    -0.02900
C1056       C  0.06104600  0.12030458  0.05419782     0.03900
N1057       N  0.10497566  0.14665392  0.05683724     0.66400
H1058       H  0.09762146  0.11173071  0.03078188     0.15300
H1059       H  0.94037215  0.07595018  0.07102195     0.15000
N1060       N  0.93311912  0.04188726  0.04461261     0.74100
O1061       O  0.14248873  0.14783030  0.06620484    -0.39300
O1062       O  0.11207562  0.16662193  0.04588419    -0.39300
O1063       O  0.92105689  0.02233442  0.05651240    -0.40000
O1064       O  0.89928577  0.04119289  0.03335629    -0.40100
C1065       C  0.46154119  0.19714413  0.15636917    -0.12300
C1066       C  0.46636550  0.19297017  0.17565417     0.04700
C1067       C  0.48140615  0.21582247  0.18770019    -0.07600
C1068       C  0.48548280  0.24096266  0.18064819    -0.08400
C1069       C  0.47487614  0.24378982  0.16178891    -0.02900
C1070       C  0.46576582  0.22215521  0.14938788     0.03900
N1071       N  0.45872007  0.22482762  0.12971347     0.66400
H1072       H  0.45267250  0.18057383  0.14657223     0.15300
H1073       H  0.49262547  0.25747186  0.19032430     0.15000
N1074       N  0.48814357  0.21340289  0.20737735     0.74100
O1075       O  0.49762140  0.23410768  0.11885796    -0.39300
O1076       O  0.41432137  0.21116415  0.12289807    -0.39300
O1077       O  0.53333726  0.22232325  0.21360534    -0.40000
O1078       O  0.45217486  0.21040868  0.21850332    -0.40100
C1079       C  0.51698987  0.11679505  0.21804395    -0.12300
C1080       C  0.48442447  0.12874108  0.22093133     0.04700
C1081       C  0.48064464  0.13804887  0.23893489    -0.07600
C1082       C  0.51057880  0.13599073  0.25358263    -0.08400
C1083       C  0.54592643  0.12586272  0.25034665    -0.02900
C1084       C  0.54857388  0.11585882  0.23241010     0.03900
N1085       N  0.58450536  0.10573649  0.22829048     0.63700
H1086       H  0.52036351  0.10972197  0.20419979     0.15300
H1087       H  0.50873670  0.14413023  0.26720395     0.15000
N1088       N  0.44818982  0.15052997  0.24245727     0.74100
O1089       O  0.56869861  0.07990907  0.22805229    -0.39300
O1090       O  0.62671753  0.12171532  0.22016809    -0.39300
O1091       O  0.40372288  0.13582698  0.24943170    -0.40000
O1092       O  0.46869411  0.17650370  0.24387618    -0.40100
C1093       C  0.32419466  0.43030067  0.13488410    -0.12300
C1094       C  0.33063513  0.41857530  0.11844238     0.04700
C1095       C  0.31794827  0.42602932  0.10099451    -0.07600
C1096       C  0.30140222  0.44640045  0.10015722    -0.08400
C1097       C  0.29698510  0.45918929  0.11667706    -0.02900
C1098       C  0.30693711  0.45015715  0.13420981     0.03900
N1099       N  0.29817637  0.46018550  0.15155513     0.66400
H1100       H  0.33234530  0.42381356  0.14843078     0.15300
H1101       H  0.29400225  0.45297223  0.08653446     0.15000
N1102       N  0.32453193  0.41417556  0.08408194     0.74100
O1103       O  0.25431861  0.44745848  0.15940439    -0.39300
O1104       O  0.33643020  0.47592898  0.16122457    -0.39300
O1105       O  0.28757538  0.39219373  0.07821539    -0.40000
O1106       O  0.36947579  0.42183465  0.07762698    -0.40100
C1107       C  0.34665296  0.09429558  0.15196115    -0.12300
C1108       C  0.38462843  0.09316944  0.16347834     0.04700
C1109       C  0.39302534  0.06978772  0.16260731    -0.07600
C1110       C  0.36352791  0.04827084  0.15061359    -0.08400
C1111       C  0.32482987  0.04894081  0.13919683    -0.02900
C1112       C  0.31667922  0.07250724  0.13998751     0.03900
N1113       N  0.27775091  0.07467146  0.12912889     0.66400
H1114       H  0.33942686  0.11203766  0.15247933     0.15300
H1115       H  0.37232377  0.03112793  0.15003784     0.15000
N1116       N  0.43313236  0.06798793  0.17301050     0.74100
O1117       O  0.23352303  0.06656998  0.13638781    -0.39300
O1118       O  0.29117899  0.09116868  0.11511169    -0.39300
O1119       O  0.42117029  0.05150370  0.18700434    -0.40000
O1120       O  0.47710111  0.07661506  0.16540490    -0.40100
C1121       C  0.22678395  0.49498016  0.06553220    -0.12300
C1122       C  0.22671709  0.51086936  0.08087763     0.04700
C1123       C  0.20003015  0.52674100  0.07919121    -0.07600
C1124       C  0.17265771  0.52540123  0.06274883    -0.08400
C1125       C  0.17213205  0.50897510  0.04773335    -0.02900
C1126       C  0.20004909  0.49387480  0.04916372     0.03900
N1127       N  0.19958453  0.47607875  0.03457030     0.66400
H1128       H  0.24753323  0.48292647  0.06617523     0.15300
H1129       H  0.13311433  0.02542781  0.06447414     0.15000
N1130       N  0.17501926  0.02950717  0.09769196     0.74100
O1131       O  0.23562742  0.48526380  0.02245790    -0.39300
O1132       O  0.17236393  0.45020632  0.03675560    -0.39300
O1133       O  0.19071897  0.05532846  0.09770254    -0.40000
O1134       O  0.16285478  0.53398607  0.10585934    -0.40100
C1135       C  0.24578609  0.00441457  0.09985060     0.80200
N1136       N  0.27536564  0.52998378  0.11050485    -0.78200
C1137       C  0.30289651  0.52767386  0.12531900     0.82600
N1138       N  0.30298685  0.00217027  0.12899572    -0.78100
C1139       C  0.28203875  0.98062935  0.11720140     0.82700
N1140       N  0.25385371  0.98204802  0.10261908    -0.79800
C1141       C  0.45887537  0.63105000  0.20695365     0.80200
N1142       N  0.46626151  0.65712883  0.20275425    -0.78200
C1143       C  0.44891561  0.66238980  0.18622419     0.82600
N1144       N  0.42400572  0.64136378  0.17414072    -0.78100
C1145       C  0.41657834  0.61537491  0.17810201     0.82700
N1146       N  0.43469835  0.61040714  0.19449206    -0.79800
C1147       C  0.04979808  0.66336663  0.10397162     0.80200
N1148       N  0.01027870  0.64915070  0.11652220    -0.78200
C1149       C  0.97145617  0.62360538  0.11220491     0.82600
N1150       N  0.97316558  0.61248845  0.09541329    -0.78100
C1151       C  0.01211913  0.62635381  0.08276368     0.82700
N1152       N  0.05004844  0.65160873  0.08727950    -0.79800
C1153       C  0.73944320  0.51188375  0.17700616     0.80200
N1154       N  0.73130100  0.52533543  0.19149382    -0.78200
C1155       C  0.76058152  0.55313581  0.19335380     0.82600
N1156       N  0.79877945  0.56756538  0.18059164    -0.78100
C1157       C  0.80824298  0.55462774  0.16602069     0.82700
N1158       N  0.77805197  0.52676701  0.16426368    -0.79800
C1159       C  0.02636557  0.80042551  0.17874927     0.80200
N1160       N  0.00000734  0.78364807  0.19352161    -0.78200
C1161       C  0.94922706  0.77600085  0.19643953     0.82600
N1162       N  0.92452175  0.78548527  0.18454250    -0.78100
C1163       C  0.95010590  0.80233823  0.16970890     0.82700
N1164       N  0.00082913  0.80947834  0.16677906    -0.79800
C1165       C  0.76452144  0.83621499  0.10521014     0.80200
N1166       N  0.78859611  0.82682090  0.11758887    -0.78200
C1167       C  0.83621223  0.82937922  0.11349219     0.82600
N1168       N  0.85979509  0.84185152  0.09703550    -0.78100
C1169       C  0.83663281  0.85145398  0.08454172     0.82700
N1170       N  0.78920043  0.84862851  0.08879104    -0.79800
Zr1171     Zr  0.32161285  0.82914263  0.12434168     2.17500
O1172       O  0.28960727  0.83115924  0.09305082    -0.51400
O1173       O  0.24870436  0.82582466  0.14249615    -0.74600
O1174       O  0.25204504  0.78394975  0.11678704    -0.81400
O1175       O  0.39414739  0.90625549  0.12933168    -0.83100
O1176       O  0.27148683  0.75177684  0.13022937    -0.78800
O1177       O  0.31955303  0.87218739  0.11766707    -0.90400
O1178       O  0.26616172  0.82304326  0.17333753    -0.76400
O1179       O  0.31361440  0.79943098  0.15044951    -0.85800
O1180       O  0.36078323  0.85783158  0.15051261    -0.85500
O1181       O  0.36542839  0.80368549  0.11442614    -0.72300
O1182       O  0.40926154  0.85879802  0.11432019    -0.84400
Zr1183     Zr  0.48737746  0.83351914  0.15795732     2.26400
Zr1184     Zr  0.35953509  0.77528110  0.14120520     2.06300
Zr1185     Zr  0.44788939  0.88690522  0.14097399     2.10000
Zr1186     Zr  0.35342597  0.82823911  0.17631267     1.78800
O1187       O  0.49561316  0.92449681  0.11845729    -0.93200
O1188       O  0.30332969  0.78570294  0.19464584    -0.41000
O1189       O  0.44227226  0.85846893  0.16778732    -0.77700
O1190       O  0.39945148  0.80338517  0.16785893    -0.96400
O1191       O  0.44734416  0.80415414  0.13214659    -0.89700
O1192       O  0.49326807  0.86243348  0.13158491    -0.92500
C1193       C  0.23662047  0.82331826  0.16002921     1.01200
C1194       C  0.34958881  0.89738792  0.12188194     1.14200
C1195       C  0.24152512  0.75898351  0.12127569     1.05000
O1196       O  0.31496250  0.74031844  0.16575687    -0.94700
O1197       O  0.41466486  0.75579251  0.15067888    -0.90400
O1198       O  0.48416028  0.78879091  0.16576102    -0.83600
C1199       C  0.45565673  0.76378293  0.16043261     1.11600
O1200       O  0.41780728  0.82898235  0.07462603    -0.96600
Zr1201     Zr  0.45414833  0.83308212  0.10593464     1.88900
O1202       O  0.55658244  0.83374680  0.13914390    -0.73300
O1203       O  0.34776379  0.74113963  0.11757800    -0.52500
O1204       O  0.45045021  0.79301319  0.09000842    -0.97200
O1205       O  0.50860038  0.87321091  0.08609915    -0.54400
O1206       O  0.54006937  0.83636077  0.10817365    -0.73800
C1207       C  0.56843202  0.83527591  0.12161659     0.98500
O1208       O  0.52482389  0.83610431  0.18893747    -0.62600
O1209       O  0.45142076  0.91875123  0.16519952    -0.57400
O1210       O  0.55874046  0.87992632  0.16406182    -0.94100
O1211       O  0.53560259  0.91131203  0.15169209    -0.92500
O1212       O  0.34701457  0.86356522  0.19492677    -0.92900
O1213       O  0.38944378  0.83395825  0.20775692    -0.91700
C1214       C  0.56770230  0.90486942  0.15977149     1.17400
H1215       H  0.34331951  0.86870296  0.15388723     0.33300
H1216       H  0.39900412  0.79180057  0.17840400     0.44200
H1217       H  0.52866643  0.87502210  0.12826675     0.37700
H1218       H  0.34770580  0.79217897  0.10391371     0.34200
H1219       H  0.28542068  0.79095457  0.20437429     0.26000
H1220       H  0.38304474  0.74637886  0.11288585     0.31900
H1221       H  0.46710126  0.78524986  0.09867564     0.37800
H1222       H  0.37862401  0.88090722  0.19167456     0.32300
H1223       H  0.47244809  0.93742498  0.15947998     0.31200
H1224       H  0.51635980  0.91799772  0.11104370     0.32800
H1225       H  0.53903577  0.88457480  0.09383461     0.31800
H1226       H  0.40412648  0.82088865  0.20853371     0.35800
H1227       H  0.51859964  0.85005278  0.19563652     0.28500
H1228       H  0.25201527  0.82438698  0.09480244     0.32800
H1229       H  0.44488838  0.82992800  0.06582640     0.35600
H1230       H  0.41603756  0.91673514  0.16590762     0.28200
H1231       H  0.50168650  0.81835634  0.19543650     0.41100
H1232       H  0.30270259  0.72239106  0.15937495     0.31200
H1233       H  0.27548351  0.77361961  0.18614022     0.38800
H1234       H  0.48944752  0.88409216  0.08514841     0.30600
H1235       H  0.33729600  0.72360085  0.12479709     0.30700
H1236       H  0.29241545  0.81643337  0.08598591     0.31000
Zr1237     Zr  0.72805433  0.65937682  0.34830764     2.17500
O1238       O  0.74420291  0.63368728  0.37353846    -0.51400
O1239       O  0.71268588  0.69102361  0.36756683    -0.74600
O1240       O  0.81251593  0.68518422  0.36213088    -0.81400
O1241       O  0.58616033  0.60656235  0.34578019    -0.83100
O1242       O  0.87237735  0.70300242  0.33851062    -0.78800
O1243       O  0.65382651  0.62587344  0.36582732    -0.90400
O1244       O  0.70190788  0.72134882  0.34818442    -0.76400
O1245       O  0.77110735  0.70190703  0.33107870    -0.85800
O1246       O  0.66111654  0.66571646  0.33363113    -0.85500
O1247       O  0.78450076  0.65261037  0.32696948    -0.72300
O1248       O  0.68195092  0.61934214  0.32948131    -0.84400
Zr1249     Zr  0.71435362  0.66146072  0.27523665     2.26400
Zr1250     Zr  0.82567590  0.69514353  0.30898680     2.06300
Zr1251     Zr  0.61606033  0.62644291  0.31427532     2.10000
Zr1252     Zr  0.70462039  0.70797404  0.31605293     1.78800
O1253       O  0.56152734  0.57709986  0.30963628    -0.93200
O1254       O  0.77342943  0.75568119  0.31628520    -0.41000
O1255       O  0.65818430  0.66886411  0.29640116    -0.77700
O1256       O  0.75970532  0.70215032  0.29360871    -0.96400
O1257       O  0.78122207  0.65540246  0.28980087    -0.89700
O1258       O  0.67097321  0.61919814  0.29267921    -0.92500
C1259       C  0.70456649  0.71193429  0.36457221     1.01200
C1260       C  0.60664256  0.60919275  0.36212142     1.14200
C1261       C  0.85923850  0.69798200  0.35598990     1.05000
O1262       O  0.87500327  0.74532739  0.31106213    -0.94700
O1263       O  0.85934963  0.71315290  0.27757151    -0.90400
O1264       O  0.79182263  0.69141031  0.25801522    -0.83600
C1265       C  0.83905923  0.70856039  0.26117580     1.11600
O1266       O  0.75473849  0.58858691  0.33322789    -0.96600
Zr1267     Zr  0.73791364  0.61331666  0.30755174     1.88900
O1268       O  0.72569807  0.62809877  0.25621755    -0.73300
O1269       O  0.90080796  0.68820259  0.30313896    -0.52500
O1270       O  0.81983076  0.61259983  0.30327892    -0.97200
O1271       O  0.67485346  0.56434843  0.30882503    -0.54400
O1272       O  0.73746651  0.59812202  0.27557019    -0.73800
C1273       C  0.73317753  0.60694301  0.25914985     0.98500
O1274       O  0.69552689  0.68518556  0.24932697    -0.62600
O1275       O  0.54206452  0.63356691  0.32213604    -0.57400
O1276       O  0.63128417  0.63841873  0.26084181    -0.94100
O1277       O  0.57143635  0.62288979  0.28453005    -0.92500
O1278       O  0.62632630  0.71236480  0.32068701    -0.92900
O1279       O  0.68863731  0.73469095  0.29150735    -0.91700
C1280       C  0.58476856  0.62754982  0.26702251     1.17400
H1281       H  0.63749853  0.66663727  0.34276415     0.33300
H1282       H  0.77496683  0.71852711  0.28556249     0.44200
H1283       H  0.65092136  0.60395889  0.28459239     0.37700
H1284       H  0.80985154  0.64964832  0.33390382     0.34200
H1285       H  0.75578985  0.76680597  0.31940152     0.26000
H1286       H  0.93080022  0.70600681  0.30637534     0.31900
H1287       H  0.83721018  0.62577469  0.29267835     0.37800
H1288       H  0.59972228  0.69717695  0.31337110     0.32300
H1289       H  0.54135980  0.64623803  0.31212600     0.31200
H1290       H  0.52643934  0.57366298  0.31344061     0.32800
H1291       H  0.69371523  0.55466297  0.30397467     0.31800
H1292       H  0.69202145  0.72652403  0.27959703     0.35800
H1293       H  0.71890569  0.70518204  0.25097916     0.28500
H1294       H  0.75517980  0.64606902  0.38446346     0.32800
H1295       H  0.73530480  0.59030506  0.34410499     0.35600
H1296       H  0.51152714  0.61558153  0.31969882     0.28200
H1297       H  0.70838991  0.68028812  0.23783794     0.41100
H1298       H  0.91074903  0.74963611  0.30753908     0.31200
H1299       H  0.79374606  0.75666859  0.32762759     0.38800
H1300       H  0.64966099  0.56215708  0.29889513     0.30600
H1301       H  0.89936482  0.67496430  0.31313120     0.30700
H1302       H  0.77532554  0.63227332  0.36956744     0.31000
C1303       C  0.64707706  0.96373942  0.50634613     0.80200
N1304       N  0.62301320  0.95088457  0.52272918    -0.78200
C1305       C  0.57724727  0.94969659  0.52782495     0.82600
N1306       N  0.55547249  0.96149767  0.51641117    -0.78100
C1307       C  0.57841088  0.97420674  0.49985534     0.82700
N1308       N  0.62431641  0.97527040  0.49498800    -0.79800
C1309       C  0.41089469  0.53408493  0.44779524     0.80200
N1310       N  0.43040724  0.52037021  0.45874198    -0.78200
C1311       C  0.47662137  0.52153507  0.45423912     0.82600
N1312       N  0.50205201  0.53591437  0.43852859    -0.78100
C1313       C  0.48266275  0.54912163  0.42723238     0.82700
N1314       N  0.43704833  0.54828171  0.43204545    -0.79800
C1315       C  0.35885185  0.69519298  0.50894379     0.80200
N1316       N  0.40368034  0.70551492  0.49893212    -0.78200
C1317       C  0.44452554  0.73021857  0.50328060     0.82600
N1318       N  0.44013138  0.74470643  0.51801878    -0.78100
C1319       C  0.39505293  0.73465820  0.52809089     0.82700
N1320       N  0.35481314  0.71002596  0.52341379    -0.79800
C1321       C  0.71243536  0.80384178  0.44804551     0.80200
N1322       N  0.66843968  0.79408435  0.45861227    -0.78200
C1323       C  0.62701303  0.76925281  0.45501201     0.82600
N1324       N  0.63000559  0.75388107  0.44063599    -0.78100
C1325       C  0.67395385  0.76352340  0.43003625     0.82700
N1326       N  0.71448153  0.78843987  0.43372349    -0.79800
C1327       C  0.05723334  0.79603656  0.54240199     0.80200
N1328       N  0.03943229  0.81497623  0.54222959    -0.78200
C1329       C  0.01185436  0.81711560  0.52749268     0.82600
N1330       N  0.00198068  0.79970169  0.51272047    -0.78100
C1331       C  0.01922827  0.78038579  0.51280839     0.82700
N1332       N  0.04700035  0.77901823  0.52769820    -0.79800
C1333       C  0.99748305  0.70582111  0.41597217     0.80200
N1334       N  0.99853194  0.71970627  0.43171960    -0.78200
C1335       C  0.01995925  0.71651332  0.44788657     0.82600
N1336       N  0.04071905  0.69867747  0.44822490    -0.78100
C1337       C  0.04033844  0.68452205  0.43252222     0.82700
N1338       N  0.01818310  0.68812521  0.41655367    -0.79800
Zr1339     Zr  0.94874078  0.96014864  0.49625525     2.17500
O1340       O  0.91078941  0.94824568  0.52774722    -0.51400
O1341       O  0.88558289  0.92091327  0.47980899    -0.74600
O1342       O  0.86981403  0.96503932  0.49582931    -0.81400
O1343       O  0.04219456  0.93150521  0.50549004    -0.83100
O1344       O  0.88341845  0.00305370  0.47826636    -0.78800
O1345       O  0.95748225  0.92075014  0.50927587    -0.90400
O1346       O  0.91519186  0.92484928  0.44974782    -0.76400
O1347       O  0.94226329  0.97749198  0.46603774    -0.85800
O1348       O  0.00180496  0.95064669  0.47525544    -0.85500
O1349       O  0.98124112  0.50889401  0.49987074    -0.72300
O1350       O  0.03414688  0.98315695  0.50904555    -0.84400
Zr1351     Zr  0.11249290  0.54249697  0.45884924     2.26400
Zr1352     Zr  0.97460569  0.52739423  0.46980424     2.06300
Zr1353     Zr  0.08695727  0.97422891  0.48738621     2.10000
Zr1354     Zr  0.99513476  0.96807964  0.44526655     1.78800
O1355       O  0.14036716  0.97545682  0.51391218    -0.93200
O1356       O  0.93551535  0.96927960  0.42182035    -0.41000
O1357       O  0.08179960  0.99177856  0.45679608    -0.77700
O1358       O  0.02589138  0.51941540  0.44691663    -0.96400
O1359       O  0.06087799  0.55101446  0.48100339    -0.89700
O1360       O  0.11998504  0.52305971  0.48823606    -0.92500
C1361       C  0.88199358  0.91220256  0.46302129     1.01200
C1362       C  0.99573644  0.91541885  0.51101499     1.14200
C1363       C  0.85443090  0.98147401  0.48815668     1.05000
O1364       O  0.91986832  0.52730992  0.44407434    -0.94700
O1365       O  0.01414769  0.56954402  0.45122164    -0.90400
O1366       O  0.09925431  0.58155474  0.44704838    -0.83600
C1367       C  0.05990362  0.58611370  0.44543364     1.11600
O1368       O  0.02841966  0.52191903  0.54146454    -0.96600
Zr1369     Zr  0.06901625  0.53201809  0.51033420     1.88900
O1370       O  0.17514673  0.58089891  0.47691802    -0.73300
O1371       O  0.96136456  0.56039175  0.48870336    -0.52500
O1372       O  0.05060838  0.56920692  0.51989894    -0.97200
O1373       O  0.12455547  0.52672846  0.53382859    -0.54400
O1374       O  0.15036080  0.57462078  0.50761511    -0.73800
C1375       C  0.18165191  0.58846683  0.49416058     0.98500
O1376       O  0.15054794  0.55768648  0.42751131    -0.62600
O1377       O  0.10043868  0.93958642  0.47052535    -0.57400
O1378       O  0.18947884  0.53566582  0.45533795    -0.94100
O1379       O  0.17359048  0.49548164  0.47065675    -0.92500
O1380       O  0.01956033  0.93346203  0.43485689    -0.92900
O1381       O  0.03331684  0.97862458  0.41377158    -0.91700
C1382       C  0.20270380  0.51721124  0.46089871     1.17400
H1383       H  0.99070115  0.93100941  0.47443654     0.33300
H1384       H  0.02469836  0.52785144  0.43498606     0.44200
H1385       H  0.15555165  0.53104972  0.49223464     0.37700
H1386       H  0.95931142  0.51148684  0.50894370     0.34200
H1387       H  0.90488784  0.96693886  0.42915891     0.26000
H1388       H  0.99491885  0.57750026  0.48817326     0.31900
H1389       H  0.07826334  0.58020466  0.52880938     0.37800
H1390       H  0.99111149  0.92126781  0.42659839     0.32300
H1391       H  0.11520659  0.94843534  0.45816235     0.31200
H1392       H  0.15121096  0.96117785  0.51119592     0.32800
H1393       H  0.15852697  0.53333135  0.52747549     0.31800
H1394       H  0.05244601  0.49939888  0.41085048     0.35800
H1395       H  0.15554304  0.54214169  0.42275833     0.28500
H1396       H  0.87502007  0.93348189  0.52586568     0.32800
H1397       H  0.05249116  0.53697760  0.54954837     0.35600
H1398       H  0.12928730  0.93854052  0.47709962     0.28200
H1399       H  0.12227763  0.55737097  0.41972291     0.41100
H1400       H  0.90883697  0.54127363  0.44752275     0.31200
H1401       H  0.95139191  0.98874122  0.41712890     0.38800
H1402       H  0.11124527  0.50644584  0.53531880     0.30600
H1403       H  0.93793996  0.56503214  0.48116404     0.30700
H1404       H  0.90690974  0.96454801  0.53157736     0.31000
C1405       C  0.61235528  0.87403796  0.74637247     0.80200
N1406       N  0.60378898  0.84757716  0.74933736    -0.78200
C1407       C  0.61721858  0.83991821  0.76585020     0.82600
N1408       N  0.64067688  0.85912230  0.77928649    -0.78100
C1409       C  0.64962834  0.88571630  0.77644279     0.82700
N1410       N  0.63459151  0.89292077  0.76007850    -0.79800
C1411       C  0.81334134  0.49693730  0.85759574     0.80200
N1412       N  0.78675428  0.96993915  0.84528710    -0.78200
C1413       C  0.75913806  0.97185814  0.83044568     0.82600
N1414       N  0.75731530  0.49961085  0.82820881    -0.78100
C1415       C  0.78078195  0.52162737  0.83950420     0.82700
N1416       N  0.80850013  0.52014375  0.85416627    -0.79800
C1417       C  0.32224306  0.99562564  0.77449090     0.80200
N1418       N  0.28235357  0.97976455  0.78643288    -0.78200
C1419       C  0.25078364  0.95256644  0.78304556     0.82600
N1420       N  0.26049674  0.94113988  0.76784697    -0.78100
C1421       C  0.30035889  0.95632913  0.75586697     0.82700
N1422       N  0.33140320  0.98370407  0.75920918    -0.79800
C1423       C  0.01910680  0.84054203  0.84519433     0.80200
N1424       N  0.01196695  0.85159030  0.86116203    -0.78200
C1425       C  0.04524467  0.87805563  0.86564836     0.82600
N1426       N  0.08631144  0.89353211  0.85415118    -0.78100
C1427       C  0.09449209  0.88271317  0.83822014     0.82700
N1428       N  0.05983952  0.85635054  0.83362196    -0.79800
C1429       C  0.30359319  0.66391740  0.84721875     0.80200
N1430       N  0.27649784  0.67082215  0.83458000    -0.78200
C1431       C  0.22718992  0.66561487  0.83843424     0.82600
N1432       N  0.20505036  0.65303990  0.85501329    -0.78100
C1433       C  0.23113591  0.64584990  0.86783962     0.82700
N1434       N  0.28036404  0.65127619  0.86383330    -0.79800
C1435       C  0.03539947  0.69353433  0.77409027     0.80200
N1436       N  0.06214172  0.68478411  0.78554837    -0.78200
C1437       C  0.11366415  0.69393127  0.78283352     0.82600
N1438       N  0.13858306  0.71239993  0.76863582    -0.78100
C1439       C  0.11228853  0.72131138  0.75707062     0.82700
N1440       N  0.06078712  0.71166076  0.75974426    -0.79800
Zr1441     Zr  0.57805265  0.66771993  0.79148982     2.17500
O1442       O  0.54095829  0.66438642  0.76040921    -0.51400
O1443       O  0.51040760  0.66902879  0.81053616    -0.74600
O1444       O  0.50574868  0.62076262  0.78796911    -0.81400
O1445       O  0.65967790  0.74578022  0.78827100    -0.83100
O1446       O  0.52813734  0.59089272  0.80309334    -0.78800
O1447       O  0.58084082  0.71110145  0.78023950    -0.90400
O1448       O  0.53245627  0.67097425  0.84131478    -0.76400
O1449       O  0.57387810  0.64240970  0.81956631    -0.85800
O1450       O  0.62269937  0.70052525  0.81523526    -0.85500
O1451       O  0.61959846  0.64012323  0.78365852    -0.72300
O1452       O  0.66510654  0.69461912  0.77980336    -0.84400
Zr1453     Zr  0.74794840  0.67488736  0.82455385     2.26400
Zr1454     Zr  0.61681710  0.61594078  0.81245109     2.06300
Zr1455     Zr  0.70949978  0.72691036  0.80395858     2.10000
Zr1456     Zr  0.61862141  0.67493527  0.84311435     1.78800
O1457       O  0.75950408  0.75842571  0.77840351    -0.93200
O1458       O  0.56517087  0.63615320  0.86415637    -0.41000
O1459       O  0.70649762  0.70232911  0.83254111    -0.77700
O1460       O  0.66163085  0.64777646  0.83672148    -0.96400
O1461       O  0.70322790  0.64207046  0.80108765    -0.89700
O1462       O  0.75165450  0.70012693  0.79648774    -0.92500
C1463       C  0.50138619  0.66957129  0.82817063     1.01200
C1464       C  0.61480203  0.73677225  0.78108370     1.14200
C1465       C  0.49611671  0.59638298  0.79408626     1.05000
O1466       O  0.57168990  0.58777259  0.83998330    -0.94700
O1467       O  0.66937143  0.59634686  0.82432300    -0.90400
O1468       O  0.74689278  0.63098757  0.83299490    -0.83600
C1469       C  0.71463236  0.60518109  0.83105095     1.11600
O1470       O  0.67204698  0.66123786  0.74153152    -0.96600
Zr1471     Zr  0.70763939  0.66720672  0.77307299     1.88900
O1472       O  0.81595125  0.67444142  0.80545581    -0.73300
O1473       O  0.60635749  0.57679600  0.79359513    -0.52500
O1474       O  0.69639871  0.62369428  0.76015401    -0.97200
O1475       O  0.76135289  0.70502745  0.75138462    -0.54400
O1476       O  0.79337636  0.66997851  0.77471435    -0.73800
C1477       C  0.82499827  0.67262223  0.78799793     0.98500
O1478       O  0.78494433  0.67805887  0.85565860    -0.62600
O1479       O  0.71523447  0.76330450  0.82469040    -0.57400
O1480       O  0.81992902  0.72149188  0.82839578    -0.94100
O1481       O  0.79780662  0.75233122  0.81459772    -0.92500
O1482       O  0.63163645  0.71776731  0.85766880    -0.92900
O1483       O  0.65009637  0.67956608  0.87519976    -0.91700
C1484       C  0.82989059  0.74627491  0.82317449     1.17400
H1485       H  0.60707793  0.71238478  0.81746983     0.33300
H1486       H  0.66220927  0.63780739  0.84801646     0.44200
H1487       H  0.78682493  0.71206077  0.79245306     0.37700
H1488       H  0.60021066  0.62709749  0.77410754     0.34200
H1489       H  0.54772921  0.64349311  0.87261296     0.26000
H1490       H  0.57515298  0.56067765  0.79878207     0.31900
H1491       H  0.71086487  0.61589337  0.76970946     0.37800
H1492       H  0.59940558  0.71898754  0.85538421     0.32300
H1493       H  0.72844169  0.78017978  0.81653214     0.31200
H1494       H  0.76501324  0.77690441  0.78235897     0.32800
H1495       H  0.79449187  0.71561312  0.75792709     0.31800
H1496       H  0.68571849  0.68210436  0.87384433     0.35800
H1497       H  0.78453240  0.69442383  0.86129376     0.28500
H1498       H  0.50342409  0.65706019  0.76269407     0.32800
H1499       H  0.69726355  0.65909134  0.73331073     0.35600
H1500       H  0.67896944  0.75877525  0.82749149     0.28200
H1501       H  0.75836804  0.66210607  0.86294671     0.41100
H1502       H  0.56648945  0.56896335  0.83712397     0.31200
H1503       H  0.53719223  0.62297227  0.85613882     0.38800
H1504       H  0.74527871  0.71747339  0.75123519     0.30600
H1505       H  0.59602220  0.58036819  0.78101406     0.30700
H1506       H  0.54428064  0.64908357  0.75434534     0.31000
Zr1507     Zr  0.04684988  0.50297646  0.94000496     2.17500
O1508       O  0.10504816  0.51067136  0.91335158    -0.51400
O1509       O  0.97628236  0.49608202  0.91929949    -0.74600
O1510       O  0.02622065  0.95708628  0.92573788    -0.81400
O1511       O  0.11778950  0.58103384  0.94694769    -0.83100
O1512       O  0.99554158  0.92027007  0.94597549    -0.78800
O1513       O  0.09107398  0.54799497  0.92459317    -0.90400
O1514       O  0.90474101  0.98686801  0.93837363    -0.76400
O1515       O  0.96440575  0.96482000  0.95526526    -0.85800
O1516       O  0.01157940  0.52894289  0.95518258    -0.85500
O1517       O  0.06990903  0.97363013  0.96122884    -0.72300
O1518       O  0.11256264  0.53260452  0.96094297    -0.84400
Zr1519     Zr  0.01883417  0.99426164  0.01405312     2.26400
Zr1520     Zr  0.99208378  0.93990911  0.97645852     2.06300
Zr1521     Zr  0.07623867  0.55800807  0.97669009     2.10000
Zr1522     Zr  0.92946155  0.99037244  0.97108534     1.78800
O1523       O  0.16043360  0.59339401  0.98675659    -0.93200
O1524       O  0.84715628  0.94819173  0.97091879    -0.41000
O1525       O  0.99846773  0.52479116  0.99201444    -0.77700
O1526       O  0.95367035  0.96435950  0.99267585    -0.96400
O1527       O  0.05494045  0.96883148  0.99864312    -0.89700
O1528       O  0.10275166  0.53323712  0.99850599    -0.92500
C1529       C  0.93181434  0.49472711  0.92182603     1.01200
C1530       C  0.11557192  0.57317569  0.92986276     1.14200
C1531       C  0.01036826  0.93137211  0.92948072     1.05000
O1532       O  0.90861423  0.90023021  0.97062756    -0.94700
O1533       O  0.95594661  0.91516529  0.00599651    -0.90400
O1534       O  0.97439891  0.94803148  0.02810082    -0.83600
C1535       C  0.95477121  0.92284494  0.02286309     1.11600
O1536       O  0.19617069  0.50650210  0.95884140    -0.96600
Zr1537     Zr  0.13660638  0.50682887  0.98275626     1.88900
O1538       O  0.09068701  0.00044907  0.03398824    -0.73300
O1539       O  0.03514534  0.91163527  0.98228820    -0.52500
O1540       O  0.15453249  0.96530843  0.98683983    -0.97200
O1541       O  0.21786766  0.54964212  0.98371149    -0.54400
O1542       O  0.16192777  0.50719971  0.01492435    -0.73800
C1543       C  0.13512279  0.00149452  0.03188285     0.98500
O1544       O  0.97454536  0.99179532  0.04369653    -0.62600
O1545       O  0.04988350  0.59264968  0.96720454    -0.57400
O1546       O  0.01706926  0.53865386  0.02584439    -0.94100
O1547       O  0.05501083  0.57521272  0.00530459    -0.92500
O1548       O  0.90375691  0.52930000  0.96766382    -0.92900
O1549       O  0.86919473  0.99013537  0.99485736    -0.91700
C1550       C  0.03184400  0.56402935  0.02098427     1.17400
H1551       H  0.00407571  0.54002974  0.94618028     0.33300
H1552       H  0.92279142  0.95158717  0.99945227     0.44200
H1553       H  0.12668132  0.54576476  0.00741436     0.37700
H1554       H  0.08577826  0.96463962  0.95413127     0.34200
H1555       H  0.82342337  0.95358852  0.96425551     0.26000
H1556       H  0.00820622  0.89239518  0.98015134     0.31900
H1557       H  0.13216049  0.95323673  0.99718043     0.37800
H1558       H  0.93020164  0.54467622  0.95994114     0.32300
H1559       H  0.01506678  0.58600310  0.97286535     0.31200
H1560       H  0.16143275  0.61118496  0.98293843     0.32800
H1561       H  0.21634792  0.55842347  0.99559592     0.31800
H1562       H  0.88983783  0.99622805  0.00645798     0.35800
H1563       H  0.94787030  0.48404112  0.04272092     0.28500
H1564       H  0.08251889  0.50125116  0.90262216     0.32800
H1565       H  0.22829179  0.51032650  0.96559515     0.35600
H1566       H  0.07234052  0.60935772  0.97435309     0.28200
H1567       H  0.98846440  0.98350140  0.05311354     0.41100
H1568       H  0.88352334  0.90378867  0.97791106     0.31200
H1569       H  0.85265548  0.93598551  0.96206992     0.38800
H1570       H  0.21494934  0.56168672  0.97370400     0.30600
H1571       H  0.05973388  0.91599156  0.97162518     0.30700
H1572       H  0.11946798  0.99577751  0.91793684     0.31000
Zr1573     Zr  0.34988248  0.84033230  0.68060234     2.17500
O1574       O  0.35913772  0.81442757  0.70737842    -0.51400
O1575       O  0.33806749  0.87327191  0.69985820    -0.74600
O1576       O  0.43497095  0.86394536  0.69441954    -0.81400
O1577       O  0.20645413  0.78601815  0.67687470    -0.83100
O1578       O  0.49429089  0.88350768  0.67076476    -0.78800
O1579       O  0.27251451  0.80761209  0.69702914    -0.90400
O1580       O  0.32319614  0.90175939  0.68000867    -0.76400
O1581       O  0.39107416  0.88308263  0.66347992    -0.85800
O1582       O  0.28244853  0.84577301  0.66572463    -0.85500
O1583       O  0.40759345  0.83454962  0.65921377    -0.72300
O1584       O  0.30713253  0.80048758  0.66128394    -0.84400
Zr1585     Zr  0.33654272  0.84356762  0.60658170     2.26400
Zr1586     Zr  0.44701611  0.87738688  0.64154459     2.06300
Zr1587     Zr  0.23995746  0.80651269  0.64609976     2.10000
Zr1588     Zr  0.32389327  0.88800755  0.64801467     1.78800
O1589       O  0.18979958  0.75656690  0.64252909    -0.93200
O1590       O  0.38848198  0.93667035  0.64820434    -0.41000
O1591       O  0.27955905  0.84906189  0.62824813    -0.77700
O1592       O  0.38060307  0.88365060  0.62573633    -0.96400
O1593       O  0.40451433  0.83861081  0.62144783    -0.89700
O1594       O  0.29587225  0.80085985  0.62388091    -0.92500
C1595       C  0.32912396  0.89380538  0.69647847     1.01200
C1596       C  0.22573279  0.79005795  0.69339093     1.14200
C1597       C  0.48156459  0.87710039  0.68816899     1.05000
O1598       O  0.49463760  0.92739989  0.64506162    -0.94700
O1599       O  0.48070886  0.89630419  0.61057245    -0.90400
O1600       O  0.41458744  0.87586296  0.58992566    -0.83600
C1601       C  0.46147121  0.89255318  0.59406131     1.11600
O1602       O  0.38437078  0.77025509  0.66275877    -0.96600
Zr1603     Zr  0.36428891  0.79624018  0.63882032     1.88900
O1604       O  0.34882606  0.81084418  0.58718410    -0.73300
O1605       O  0.52394120  0.87246049  0.63476392    -0.52500
O1606       O  0.44989999  0.80005368  0.63395990    -0.97200
O1607       O  0.30314968  0.74696733  0.63852905    -0.54400
O1608       O  0.37027926  0.78434039  0.60657600    -0.73800
C1609       C  0.36241157  0.79192308  0.59026154     0.98500
O1610       O  0.31789272  0.86591245  0.57978956    -0.62600
O1611       O  0.16412873  0.81271291  0.65240387    -0.57400
O1612       O  0.24952950  0.82216993  0.59410747    -0.94100
O1613       O  0.19076819  0.80205359  0.61786011    -0.92500
O1614       O  0.24098838  0.88786581  0.65137269    -0.92900
O1615       O  0.30921222  0.91544248  0.62366189    -0.91700
C1616       C  0.20297312  0.80909167  0.60054837     1.17400
H1617       H  0.25862961  0.84644097  0.67486008     0.33300
H1618       H  0.39557633  0.90036393  0.61800959     0.44200
H1619       H  0.27659500  0.78555835  0.61572081     0.37700
H1620       H  0.43312539  0.83158713  0.66604470     0.34200
H1621       H  0.37027268  0.94636488  0.65360534     0.26000
H1622       H  0.55313837  0.88979022  0.63917399     0.31900
H1623       H  0.46412215  0.81210454  0.62260017     0.37800
H1624       H  0.21693698  0.87208265  0.64379196     0.32300
H1625       H  0.13547630  0.79366774  0.65418126     0.31200
H1626       H  0.18987806  0.75351848  0.62884909     0.32800
H1627       H  0.29243855  0.74303082  0.62526183     0.31800
H1628       H  0.30681445  0.90551575  0.61188562     0.35800
H1629       H  0.33791282  0.88607939  0.58188233     0.28500
H1630       H  0.37013089  0.82738619  0.71799327     0.32800
H1631       H  0.39094884  0.75662039  0.65580353     0.35600
H1632       H  0.16939785  0.82086681  0.66503842     0.28200
H1633       H  0.33460998  0.86241111  0.56876812     0.41100
H1634       H  0.53107817  0.93212359  0.64241674     0.31200
H1635       H  0.41317532  0.93772396  0.65804691     0.38800
H1636       H  0.27214538  0.74540307  0.64518996     0.30600
H1637       H  0.52215473  0.85790545  0.64371057     0.30700
H1638       H  0.38945408  0.81167975  0.70434669     0.31000
C1639       C  0.90481831  0.67087618  0.79807538    -0.12300
C1640       C  0.87613823  0.67434544  0.78335286     0.04700
C1641       C  0.89888709  0.68125114  0.76516623    -0.07600
C1642       C  0.95002189  0.68635242  0.76245530    -0.08400
C1643       C  0.97963034  0.68458335  0.77744727    -0.02900
C1644       C  0.95579008  0.67588071  0.79536481     0.03900
N1645       N  0.98324995  0.67358228  0.81132529     0.66400
H1646       H  0.88821248  0.66500885  0.81210899     0.15300
H1647       H  0.96698158  0.69234100  0.74847969     0.15000
N1648       N  0.87181835  0.68433811  0.74936772     0.74100
O1649       O  0.00395046  0.69377205  0.82223705    -0.39300
O1650       O  0.97481204  0.64981399  0.81712024    -0.39300
O1651       O  0.88190647  0.70839340  0.74365255    -0.40000
O1652       O  0.84940757  0.66424160  0.73849136    -0.40100
C1653       C  0.11524343  0.73614911  0.72374717    -0.12300
C1654       C  0.13915673  0.74063847  0.74131650     0.04700
C1655       C  0.18931259  0.76266156  0.74324808    -0.07600
C1656       C  0.21575844  0.77854938  0.72751654    -0.08400
C1657       C  0.19329171  0.77336256  0.70959439    -0.02900
C1658       C  0.14162716  0.75223207  0.70790543     0.03900
N1659       N  0.11538154  0.74638687  0.69033835     0.66400
H1660       H  0.07635983  0.71944544  0.72214830     0.15300
H1661       H  0.25444971  0.79519660  0.72954246     0.15000
N1662       N  0.21322421  0.77017310  0.76120413     0.74100
O1663       O  0.11547894  0.72758826  0.68027922    -0.39300
O1664       O  0.08216223  0.75458246  0.68737224    -0.39300
O1665       O  0.25471374  0.76903814  0.76407464    -0.40000
O1666       O  0.20187979  0.78509249  0.77160332    -0.40100
C1667       C  0.43096958  0.68171761  0.82155964    -0.12300
C1668       C  0.45190091  0.66891325  0.83354249     0.04700
C1669       C  0.42504297  0.65584931  0.85031086    -0.07600
C1670       C  0.37782446  0.65516200  0.85447841    -0.08400
C1671       C  0.35607387  0.66752318  0.84242791    -0.02900
C1672       C  0.38401936  0.68149291  0.82586867     0.03900
N1673       N  0.36654894  0.69618054  0.81342862     0.66400
H1674       H  0.45169160  0.69246874  0.80883860     0.15300
H1675       H  0.35766162  0.64418937  0.86718923     0.15000
N1676       N  0.44376970  0.64207957  0.86299415     0.74100
O1677       O  0.37953994  0.72127136  0.81654878    -0.39300
O1678       O  0.35200072  0.68706457  0.79715434    -0.39300
O1679       O  0.46193054  0.65302027  0.87854755    -0.40000
O1680       O  0.42914437  0.61654552  0.86109274    -0.40100
C1681       C  0.21779858  0.68070246  0.80602250    -0.12300
C1682       C  0.19700287  0.67218309  0.82423933     0.04700
C1683       C  0.14755773  0.66976263  0.82821495    -0.07600
C1684       C  0.12139501  0.67647333  0.81435688    -0.08400
C1685       C  0.14262052  0.68552818  0.79631361    -0.02900
C1686       C  0.19128061  0.68721666  0.79209573     0.03900
N1687       N  0.21409665  0.69471663  0.77371942     0.66400
H1688       H  0.25490108  0.68214321  0.80236342     0.15300
H1689       H  0.08432802  0.67508146  0.81803630     0.15000
N1690       N  0.12302276  0.66095792  0.84624554     0.74100
O1691       O  0.25237383  0.71830405  0.77111098    -0.39300
O1692       O  0.20713776  0.67572265  0.76243933    -0.39300
O1693       O  0.12544417  0.67904285  0.85758619    -0.40000
O1694       O  0.08763697  0.63635162  0.84841343    -0.40100
C1695       C  0.14943464  0.61207745  0.88318596    -0.12300
C1696       C  0.20293243  0.62903736  0.88468826     0.04700
C1697       C  0.22704913  0.62873574  0.90186620    -0.07600
C1698       C  0.19736043  0.61156790  0.91692693    -0.08400
C1699       C  0.14418659  0.59410562  0.91502665    -0.02900
C1700       C  0.12023840  0.59465729  0.89798847     0.03900
N1701       N  0.06602403  0.57776490  0.89548000     0.66400
H1702       H  0.12994056  0.61160083  0.87016981     0.15300
H1703       H  0.21633201  0.61103220  0.92988924     0.15000
N1704       N  0.28130132  0.64552005  0.90433282     0.74100
O1705       O  0.03617046  0.58832642  0.89768089    -0.39300
O1706       O  0.05038020  0.55558047  0.88651771    -0.39300
O1707       O  0.29705846  0.66753964  0.91348742    -0.40000
O1708       O  0.31108543  0.63495419  0.90194588    -0.40100
C1709       C  0.95170957  0.81630619  0.82183538    -0.12300
C1710       C  0.97610959  0.81467552  0.83836355     0.04700
C1711       C  0.95421214  0.78978114  0.84913282    -0.07600
C1712       C  0.90779225  0.76738260  0.84351204    -0.08400
C1713       C  0.88154735  0.76952876  0.82754091    -0.02900
C1714       C  0.90464247  0.79432519  0.81647008     0.03900
N1715       N  0.88057051  0.79797183  0.79994689     0.66400
H1716       H  0.96782870  0.83543314  0.81353400     0.15300
H1717       H  0.89123397  0.74858593  0.85214366     0.15000
N1718       N  0.97853805  0.78682023  0.86578292     0.74100
O1719       O  0.85444477  0.81089560  0.80108709    -0.39300
O1720       O  0.89660989  0.79526271  0.78402285    -0.39300
O1721       O  0.96110670  0.78879044  0.88161748    -0.40000
O1722       O  0.00682648  0.77511803  0.86478541    -0.40100
C1723       C  0.01821489  0.87619042  0.89906816    -0.12300
C1724       C  0.03337448  0.89073980  0.88177240     0.04700
C1725       C  0.03533181  0.91693295  0.87998284    -0.07600
C1726       C  0.02393153  0.92838548  0.89544143    -0.08400
C1727       C  0.01227809  0.91497172  0.91326053    -0.02900
C1728       C  0.00831803  0.88816794  0.91487216     0.03900
N1729       N  0.99636827  0.87321208  0.93241275     0.66400
H1730       H  0.01569675  0.85577303  0.90048201     0.15300
H1731       H  0.02603471  0.94861964  0.89339404     0.15000
N1732       N  0.04863282  0.93236616  0.86257976     0.74100
O1733       O  0.95005548  0.85604331  0.93620436    -0.39300
O1734       O  0.03211405  0.87177266  0.94145711    -0.39300
O1735       O  0.01299166  0.93202124  0.85246186    -0.40000
O1736       O  0.09366003  0.95213549  0.86043825    -0.40100
C1737       C  0.37832027  0.52606018  0.79903157    -0.12300
C1738       C  0.36268851  0.52051850  0.78027783     0.04700
C1739       C  0.38704382  0.54202374  0.76655466    -0.07600
C1740       C  0.42782492  0.56766955  0.77164988    -0.08400
C1741       C  0.44577574  0.57224349  0.79012993    -0.02900
C1742       C  0.41972081  0.55135219  0.80399101     0.03900
N1743       N  0.43608785  0.55504280  0.82311353     0.66400
H1744       H  0.36043481  0.51002483  0.80983313     0.15300
H1745       H  0.44752013  0.58348184  0.76085059     0.15000
N1746       N  0.37186975  0.53829725  0.74733037     0.74100
O1747       O  0.41441208  0.56366773  0.83469169    -0.39300
O1748       O  0.46167070  0.54334401  0.82920156    -0.39300
O1749       O  0.33633065  0.54377027  0.74220115    -0.40000
O1750       O  0.40392551  0.53904641  0.73516059    -0.40100
C1751       C  0.13109332  0.89294643  0.80569137    -0.12300
C1752       C  0.13641519  0.90052956  0.82464235     0.04700
C1753       C  0.18002848  0.92551747  0.82969706    -0.07600
C1754       C  0.21564905  0.94233103  0.81584550    -0.08400
C1755       C  0.21003805  0.93472932  0.79690993    -0.02900
C1756       C  0.16715482  0.90948026  0.79194449     0.03900
N1757       N  0.15843168  0.90042407  0.77294942     0.66400
H1758       H  0.09804862  0.87412816  0.80128834     0.15300
H1759       H  0.24896104  0.96112599  0.82013142     0.15000
N1760       N  0.19066066  0.93371421  0.84883384     0.74100
O1761       O  0.17092431  0.88226637  0.76791558    -0.39300
O1762       O  0.12608621  0.90429405  0.76333555    -0.39300
O1763       O  0.21756839  0.92556001  0.85833053    -0.40000
O1764       O  0.18830935  0.95514753  0.85388768    -0.40100
C1765       C  0.29972956  0.91366781  0.74419069    -0.12300
C1766       C  0.31215339  0.94161620  0.74082499     0.04700
C1767       C  0.33374688  0.95397819  0.72323252    -0.07600
C1768       C  0.33999588  0.93807119  0.70925217    -0.08400
C1769       C  0.32560375  0.90989663  0.71238642    -0.02900
C1770       C  0.30635401  0.89781562  0.73026582     0.03900
N1771       N  0.29053600  0.86917854  0.73426901     0.66400
H1772       H  0.28404541  0.90379835  0.75772541     0.15300
H1773       H  0.35571851  0.94786397  0.69569545     0.15000
N1774       N  0.34840971  0.98234817  0.71897586     0.74100
O1775       O  0.32043438  0.86252561  0.74321511    -0.39300
O1776       O  0.24338750  0.85182195  0.73309179    -0.39300
O1777       O  0.39580509  0.99900784  0.71684361    -0.40000
O1778       O  0.31558575  0.98845592  0.71175178    -0.40100
C1779       C  0.71324692  0.53577157  0.83783197    -0.12300
C1780       C  0.76599826  0.54382138  0.83839264     0.04700
C1781       C  0.80183428  0.57220898  0.83862273    -0.07600
C1782       C  0.78420383  0.59202770  0.83720800    -0.08400
C1783       C  0.73118574  0.58397271  0.83574706    -0.02900
C1784       C  0.69542401  0.55530970  0.83671823     0.03900
N1785       N  0.64077665  0.54537012  0.83653648     0.66400
H1786       H  0.68530450  0.51394837  0.83836400     0.15300
H1787       H  0.81241436  0.61376230  0.83642033     0.15000
N1788       N  0.85616113  0.58132961  0.83898334     0.74100
O1789       O  0.61650477  0.53529896  0.82161554    -0.39300
O1790       O  0.61623159  0.53936798  0.85197941    -0.39300
O1791       O  0.88090521  0.58668531  0.82360858    -0.40000
O1792       O  0.88046501  0.59138268  0.85389048    -0.40100
C1793       C  0.86325871  0.47727049  0.87485262    -0.12300
C1794       C  0.84246103  0.49583483  0.87435333     0.04700
C1795       C  0.85112809  0.51356742  0.88982012    -0.07600
C1796       C  0.88023988  0.51251309  0.90496747    -0.08400
C1797       C  0.90161131  0.49436916  0.90526356    -0.02900
C1798       C  0.90114933  0.97828970  0.88769267     0.03900
N1799       N  0.93757282  0.96814046  0.88474863     0.66400
H1800       H  0.87681496  0.97190183  0.85888134     0.15300
H1801       H  0.88665195  0.52632580  0.91658999     0.15000
N1802       N  0.83039057  0.53263033  0.89071932     0.74100
O1803       O  0.92205457  0.94232634  0.88547125    -0.39300
O1804       O  0.95120637  0.46198893  0.87964663    -0.39300
O1805       O  0.74908634  0.99115897  0.90426014    -0.40000
O1806       O  0.85943189  0.55782506  0.88659311    -0.40100
C1807       C  0.61987402  0.79799243  0.75433080    -0.12300
C1808       C  0.60755497  0.81103964  0.76886944     0.04700
C1809       C  0.58827516  0.79658430  0.78614110    -0.07600
C1810       C  0.58514367  0.77040291  0.78897194    -0.08400
C1811       C  0.60153071  0.75843248  0.77497846    -0.02900
C1812       C  0.61780120  0.77204601  0.75734953     0.03900
N1813       N  0.63564859  0.76074252  0.74283562     0.66400
H1814       H  0.63424237  0.80872158  0.74092868     0.15300
H1815       H  0.57320150  0.76020657  0.80266740     0.15000
N1816       N  0.57230774  0.80822572  0.80103432     0.74100
O1817       O  0.60548132  0.74787639  0.72971536    -0.39300
O1818       O  0.68357080  0.76950974  0.74057991    -0.39300
O1819       O  0.52470017  0.80004553  0.80370318    -0.40000
O1820       O  0.60338635  0.82039344  0.81408729    -0.40100
C1821       C  0.71911168  0.90755940  0.80019407    -0.12300
C1822       C  0.67603612  0.90674122  0.79095278     0.04700
C1823       C  0.65993113  0.92661228  0.79535502    -0.07600
C1824       C  0.68722989  0.94697300  0.80842651    -0.08400
C1825       C  0.73139408  0.94855919  0.81733771    -0.02900
C1826       C  0.74708502  0.92830375  0.81318245     0.03900
N1827       N  0.79258415  0.92918725  0.82113196     0.66400
H1828       H  0.73222167  0.89253951  0.79684994     0.15300
H1829       H  0.67328360  0.96169145  0.81161535     0.15000
N1830       N  0.61487502  0.92598841  0.78716307     0.74100
O1831       O  0.78806589  0.91253203  0.83442856    -0.39300
O1832       O  0.83432161  0.94059730  0.81178953    -0.39300
O1833       O  0.57267078  0.91447703  0.79621668    -0.40000
O1834       O  0.62005420  0.94270150  0.77382141    -0.40100
C1835       C  0.55502878  0.89181402  0.73379007    -0.12300
C1836       C  0.58843764  0.88058865  0.73012829     0.04700
C1837       C  0.59209599  0.87245258  0.71167976    -0.07600
C1838       C  0.55974839  0.87386439  0.69767029    -0.08400
C1839       C  0.52294332  0.88270846  0.70183542    -0.02900
C1840       C  0.52194421  0.89263189  0.71993500     0.03900
N1841       N  0.48691855  0.90309404  0.72463906     0.66400
H1842       H  0.55198404  0.89827132  0.74786774     0.15300
H1843       H  0.56122102  0.86636073  0.68377909     0.15000
N1844       N  0.62802444  0.86258037  0.70693760     0.74100
O1845       O  0.44501157  0.88729328  0.73299972    -0.39300
O1846       O  0.50373082  0.92898413  0.72524521    -0.39300
O1847       O  0.61155085  0.83706523  0.70416699    -0.40000
O1848       O  0.67206359  0.87963233  0.70060709    -0.40100
C1849       C  0.09663421  0.63664020  0.44849483    -0.12300
C1850       C  0.06679092  0.61311094  0.43805181     0.04700
C1851       C  0.03376468  0.61464360  0.42420412    -0.07600
C1852       C  0.02889134  0.63884995  0.42186354    -0.08400
C1853       C  0.05539852  0.66181530  0.43341590    -0.02900
C1854       C  0.09109412  0.66079364  0.44647284     0.03900
N1855       N  0.12099069  0.68346130  0.45830810     0.66400
H1856       H  0.12171485  0.63559853  0.45933627     0.15300
H1857       H  0.00144767  0.63883423  0.41166272     0.15000
N1858       N  0.00313537  0.59137359  0.41288961     0.74100
O1859       O  0.11787796  0.67915014  0.47587719    -0.39300
O1860       O  0.16075021  0.70376849  0.45148279    -0.39300
O1861       O  0.95523487  0.57776744  0.41616751    -0.40000
O1862       O  0.02058358  0.58942742  0.39705356    -0.40100
C1863       C  0.01786021  0.88792132  0.53357582    -0.12300
C1864       C  0.98680658  0.88835656  0.51882634     0.04700
C1865       C  0.95736937  0.86390522  0.50895156    -0.07600
C1866       C  0.96379864  0.84029994  0.51260702    -0.08400
C1867       C  0.99833950  0.84040478  0.52644976    -0.02900
C1868       C  0.02305212  0.86420367  0.53778574     0.03900
N1869       N  0.05632000  0.86560570  0.55286824     0.66400
H1870       H  0.04052690  0.90668740  0.54127327     0.15300
H1871       H  0.94326471  0.82225308  0.50403032     0.15000
N1872       N  0.92446364  0.86362738  0.49403892     0.74100
O1873       O  0.10460862  0.87834098  0.55026621    -0.39300
O1874       O  0.03849340  0.86072717  0.56947272    -0.39300
O1875       O  0.94272972  0.87092899  0.47759653    -0.40000
O1876       O  0.88020462  0.86090280  0.49788716    -0.40100
C1877       C  0.99311356  0.74864785  0.46374449    -0.12300
C1878       C  0.01717860  0.73144684  0.46500507     0.04700
C1879       C  0.03735910  0.72914450  0.48257202    -0.07600
C1880       C  0.03439933  0.74401601  0.49786167    -0.08400
C1881       C  0.01337992  0.76245747  0.49637455    -0.02900
C1882       C  0.99128491  0.76414342  0.47905015     0.03900
N1883       N  0.96764609  0.78169322  0.47645408     0.66400
H1884       H  0.97628528  0.75069799  0.45063698     0.15300
H1885       H  0.05071196  0.74155224  0.51095762     0.15000
N1886       N  0.06382494  0.71311887  0.48522484     0.74100
O1887       O  0.99407644  0.80573999  0.46948076    -0.39300
O1888       O  0.91900485  0.77098638  0.47635175    -0.39300
O1889       O  0.11248444  0.72578745  0.48600278    -0.40000
O1890       O  0.03978986  0.68938556  0.49292409    -0.40100
C1891       C  0.08272120  0.80241954  0.57598533    -0.12300
C1892       C  0.09085362  0.79554365  0.55779282     0.04700
C1893       C  0.13284288  0.78996342  0.55456026    -0.07600
C1894       C  0.16759958  0.79356318  0.56897624    -0.08400
C1895       C  0.16111745  0.80197674  0.58682200    -0.02900
C1896       C  0.11689143  0.80525447  0.59054977     0.03900
N1897       N  0.10757820  0.81306116  0.60866033     0.66400
H1898       H  0.05019141  0.80621058  0.57884452     0.15300
H1899       H  0.20070944  0.79034361  0.56604946     0.15000
N1900       N  0.14294143  0.78224634  0.53652921     0.74100
O1901       O  0.12511369  0.83843857  0.61216157    -0.39300
O1902       O  0.07211207  0.79523790  0.61900920    -0.39300
O1903       O  0.17623704  0.80066238  0.52583314    -0.40000
O1904       O  0.13097753  0.75716297  0.53388166    -0.40100
C1905       C  0.74992268  0.84870481  0.46466248    -0.12300
C1906       C  0.75666259  0.83154765  0.45163407     0.04700
C1907       C  0.80495492  0.84176273  0.44207892    -0.07600
C1908       C  0.84446905  0.86824976  0.44578510    -0.08400
C1909       C  0.83760968  0.88515685  0.45886448    -0.02900
C1910       C  0.78949282  0.87523385  0.46827535     0.03900
N1911       N  0.77909132  0.89219719  0.48088149     0.66400
H1912       H  0.71330924  0.84179043  0.47197003     0.15300
H1913       H  0.88134416  0.87538310  0.43860005     0.15000
N1914       N  0.81539883  0.82568045  0.42873253     0.74100
O1915       O  0.75842955  0.90640868  0.47458897    -0.39300
O1916       O  0.77793447  0.88750566  0.49836977    -0.39300
O1917       O  0.81560091  0.83128673  0.41141941    -0.40000
O1918       O  0.83793074  0.81197449  0.43414684    -0.40100
C1919       C  0.26336385  0.62993624  0.48387134    -0.12300
C1920       C  0.22829976  0.61509981  0.49853025     0.04700
C1921       C  0.23824678  0.62667986  0.51669238    -0.07600
C1922       C  0.28103587  0.65248734  0.51956079    -0.08400
C1923       C  0.31514715  0.66754205  0.50482159    -0.02900
C1924       C  0.30621068  0.65576571  0.48678145     0.03900
N1925       N  0.33838116  0.67013279  0.47095066     0.66400
H1926       H  0.25722957  0.62177198  0.46979910     0.15300
H1927       H  0.28747110  0.66080454  0.53359748     0.15000
N1928       N  0.20507746  0.61307764  0.53244735     0.74100
O1929       O  0.37124192  0.66298916  0.46528566    -0.39300
O1930       O  0.32394542  0.68338255  0.45981765    -0.39300
O1931       O  0.21670380  0.59862953  0.54358730    -0.40000
O1932       O  0.17413484  0.62164747  0.53795713    -0.40100
C1933       C  0.48707290  0.73223947  0.47256090    -0.12300
C1934       C  0.49195473  0.74126058  0.49120158     0.04700
C1935       C  0.54159248  0.76014575  0.49751840    -0.07600
C1936       C  0.58455558  0.76885828  0.48546691    -0.08400
C1937       C  0.57970565  0.75933123  0.46697941    -0.02900
C1938       C  0.52991789  0.74108129  0.46047584     0.03900
N1939       N  0.52138238  0.73224236  0.44143484     0.66400
H1940       H  0.44938242  0.71842790  0.46709386     0.15300
H1941       H  0.62224949  0.78299544  0.49080331     0.15000
N1942       N  0.54978418  0.77043587  0.51616667     0.74100
O1943       O  0.51754419  0.70887274  0.43757841    -0.39300
O1944       O  0.50365797  0.74365672  0.43008259    -0.39300
O1945       O  0.56605561  0.75942497  0.52839487    -0.40000
O1946       O  0.55597166  0.79463303  0.51867453    -0.40100
C1947       C  0.34223044  0.75261261  0.54494184    -0.12300
C1948       C  0.38830134  0.75046725  0.54369519     0.04700
C1949       C  0.42581241  0.76264527  0.55774561    -0.07600
C1950       C  0.41646857  0.77604453  0.57274089    -0.08400
C1951       C  0.37062036  0.77806079  0.57396707    -0.02900
C1952       C  0.33345057  0.76652639  0.55983356     0.03900
N1953       N  0.28617242  0.76818644  0.56075799     0.66400
H1954       H  0.31290503  0.74341385  0.53431273     0.15300
H1955       H  0.44532635  0.78491598  0.58357017     0.15000
N1956       N  0.47265680  0.76060528  0.55760220     0.74100
O1957       O  0.28243845  0.78732223  0.55177145    -0.39300
O1958       O  0.25263532  0.75423871  0.57315290    -0.39300
O1959       O  0.51472866  0.78242624  0.55501480    -0.40000
O1960       O  0.47326487  0.73995619  0.56565788    -0.40100
C1961       C  0.31879417  0.50401721  0.45492100    -0.12300
C1962       C  0.35874002  0.53082604  0.45167725     0.04700
C1963       C  0.34697507  0.55318214  0.45066923    -0.07600
C1964       C  0.29577361  0.54826974  0.45310862    -0.08400
C1965       C  0.25559721  0.52134860  0.45648072    -0.02900
C1966       C  0.26769260  0.49898811  0.45703124     0.03900
N1967       N  0.27593990  0.01414169  0.49403206     0.66400
H1968       H  0.36089418  0.01848564  0.47875389     0.15300
H1969       H  0.28777488  0.56577540  0.45292693     0.15000
N1970       N  0.38662202  0.58113738  0.44820401     0.74100
O1971       O  0.25927861  0.98994973  0.50088967    -0.39300
O1972       O  0.29395708  0.03445986  0.50491254    -0.39300
O1973       O  0.38730945  0.59444037  0.43341573    -0.40000
O1974       O  0.40995700  0.59441970  0.46249401    -0.40100
C1975       C  0.72623006  0.98400191  0.48593543    -0.12300
C1976       C  0.69878914  0.96642122  0.50115476     0.04700
C1977       C  0.72230524  0.95252837  0.51105517    -0.07600
C1978       C  0.77212822  0.95734934  0.50621475    -0.08400
C1979       C  0.80008447  0.97562815  0.49148954    -0.02900
C1980       C  0.77590986  0.98855728  0.48094423     0.03900
N1981       N  0.80885925  0.51466269  0.47150334     0.66400
H1982       H  0.71537229  0.50006592  0.48278883     0.15300
H1983       H  0.78918822  0.94678314  0.51437007     0.15000
N1984       N  0.69631740  0.93268848  0.52574250     0.74100
O1985       O  0.80370121  0.50952520  0.45418020    -0.39300
O1986       O  0.82705101  0.53946188  0.47662270    -0.39300
O1987       O  0.68052606  0.90742299  0.52225958    -0.40000
O1988       O  0.70555896  0.94039146  0.54256155    -0.40100
C1989       C  0.49956411  0.47287701  0.48804261    -0.12300
C1990       C  0.55206205  0.98588364  0.48719833     0.04700
C1991       C  0.57729348  0.00449597  0.47196814    -0.07600
C1992       C  0.55007242  0.01448800  0.46067254    -0.08400
C1993       C  0.50152171  0.50877762  0.46653094    -0.02900
C1994       C  0.47342674  0.48360440  0.47674098     0.03900
N1995       N  0.41877403  0.46765630  0.47492354     0.66400
H1996       H  0.47715924  0.45331031  0.49549787     0.15300
H1997       H  0.57098437  0.02896093  0.44930997     0.15000
N1998       N  0.63074592  0.01402256  0.46776865     0.74100
O1999       O  0.40120503  0.44989739  0.46218336    -0.39300
O2000       O  0.38987685  0.46586076  0.48864480    -0.39300
O2001       O  0.64299744  0.00379954  0.45407024    -0.40000
O2002       O  0.66357765  0.03707887  0.47394217    -0.40100
C2003       C  0.51976306  0.89682901  0.56798730    -0.12300
C2004       C  0.49535604  0.90866814  0.57853916     0.04700
C2005       C  0.49974512  0.93455806  0.57316153    -0.07600
C2006       C  0.52704468  0.94787343  0.55665870    -0.08400
C2007       C  0.55091138  0.93575224  0.54564674    -0.02900
C2008       C  0.54765063  0.91012020  0.55168850     0.03900
N2009       N  0.56971565  0.89630001  0.54104126     0.66400
H2010       H  0.51578217  0.87667404  0.57210702     0.15300
H2011       H  0.52952283  0.96764873  0.55241701     0.15000
N2012       N  0.47557474  0.94703925  0.58418702     0.74100
O2013       O  0.60478361  0.89231856  0.54852467    -0.39300
O2014       O  0.54334984  0.88047227  0.52814582    -0.39300
O2015       O  0.49599231  0.95839900  0.59940063    -0.40000
O2016       O  0.42910543  0.94102017  0.58114726    -0.40100
C2017       C  0.93958769  0.69797118  0.36680281    -0.12300
C2018       C  0.90028652  0.70525442  0.37010135     0.04700
C2019       C  0.89677709  0.71539504  0.38783903    -0.07600
C2020       C  0.93035676  0.71653547  0.40217535    -0.08400
C2021       C  0.96760504  0.70738636  0.39939698    -0.02900
C2022       C  0.97285896  0.69872617  0.38121256     0.03900
N2023       N  0.01106475  0.69023715  0.37704994     0.66400
H2024       H  0.94271505  0.69011874  0.35321992     0.15300
H2025       H  0.92570089  0.72372936  0.41579839     0.15000
N2026       N  0.85929163  0.72462278  0.39153920     0.74100
O2027       O  0.99807667  0.66468743  0.37700837    -0.39300
O2028       O  0.05186773  0.70701955  0.36847566    -0.39300
O2029       O  0.81941705  0.70936913  0.40116873    -0.40000
O2030       O  0.87143552  0.74988101  0.38891868    -0.40100
C2031       C  0.67918966  0.71001092  0.39822817    -0.12300
C2032       C  0.69595778  0.72533988  0.38118919     0.04700
C2033       C  0.70288315  0.75280484  0.38042885    -0.07600
C2034       C  0.69353846  0.76422286  0.39645139    -0.08400
C2035       C  0.67722350  0.74895968  0.41337093    -0.02900
C2036       C  0.66967305  0.72155243  0.41424392     0.03900
N2037       N  0.65528204  0.70574079  0.43146701     0.66400
H2038       H  0.67340687  0.68889905  0.39919336     0.15300
H2039       H  0.70006450  0.78549766  0.39575487     0.15000
N2040       N  0.72169747  0.76998078  0.36386989     0.74100
O2041       O  0.60860657  0.68833153  0.43436135    -0.39300
O2042       O  0.68979848  0.70433495  0.44133692    -0.39300
O2043       O  0.69038005  0.77403116  0.35375298    -0.40000
O2044       O  0.76936759  0.78645160  0.36231414    -0.40100
C2045       C  0.52279655  0.58801012  0.37958876    -0.12300
C2046       C  0.57373197  0.59229156  0.37800790     0.04700
C2047       C  0.59347175  0.58183399  0.39235168    -0.07600
C2048       C  0.56299610  0.56818553  0.40803013    -0.08400
C2049       C  0.51219985  0.56417492  0.40998560    -0.02900
C2050       C  0.49194403  0.57417662  0.39535731     0.03900
N2051       N  0.44059711  0.57080347  0.39610649     0.66400
H2052       H  0.50714821  0.59605623  0.36872681     0.15300
H2053       H  0.57981091  0.56062266  0.41875862     0.15000
N2054       N  0.64392189  0.58398826  0.39105775     0.74100
O2055       O  0.43418215  0.59126350  0.40058697    -0.39300
O2056       O  0.40589442  0.55163932  0.38688152    -0.39300
O2057       O  0.67769851  0.59885230  0.40263159    -0.40000
O2058       O  0.64960380  0.56543160  0.38260052    -0.40100
C2059       C  0.63708198  0.82215809  0.12953752    -0.12300
C2060       C  0.61790357  0.83520358  0.11692390     0.04700
C2061       C  0.64664736  0.84782381  0.10038957    -0.07600
C2062       C  0.69362238  0.84765615  0.09705071    -0.08400
C2063       C  0.71328715  0.83477982  0.10966632    -0.02900
C2064       C  0.68374851  0.82158496  0.12606728     0.03900
N2065       N  0.69940964  0.80695626  0.13925019     0.66400
H2066       H  0.61525589  0.81185177  0.14217741     0.15300
H2067       H  0.71488489  0.85799620  0.08437871     0.15000
N2068       N  0.62972763  0.86159265  0.08697717     0.74100
O2069       O  0.71943842  0.81830454  0.15450765    -0.39300
O2070       O  0.68021581  0.78096565  0.13815076    -0.39300
O2071       O  0.64995272  0.88770697  0.08689081    -0.40000
O2072       O  0.60606844  0.84876181  0.07259398    -0.40100
C2073       C  0.91978158  0.87870315  0.06725743    -0.12300
C2074       C  0.86558007  0.86734082  0.06747993     0.04700
C2075       C  0.84138289  0.87277423  0.05186447    -0.07600
C2076       C  0.87146943  0.88966454  0.03690060    -0.08400
C2077       C  0.92534406  0.90160911  0.03718715    -0.02900
C2078       C  0.94964415  0.89586654  0.05239649     0.03900
N2079       N  0.00458235  0.90736115  0.05301235     0.66400
H2080       H  0.93960098  0.87516033  0.07900374     0.15300
H2081       H  0.85265662  0.89431889  0.02526927     0.15000
N2082       N  0.78658552  0.86169403  0.05089889     0.74100
O2083       O  0.03055107  0.92989613  0.06129458    -0.39300
O2084       O  0.02509332  0.89206634  0.04951324    -0.39300
O2085       O  0.76694996  0.87779326  0.05272775    -0.40000
O2086       O  0.76059031  0.83865429  0.04321385    -0.40100
C2087       C  0.10627489  0.82345899  0.15878606    -0.12300
C2088       C  0.08158160  0.80761281  0.17501880     0.04700
C2089       C  0.11012946  0.79859385  0.18684846    -0.07600
C2090       C  0.16060686  0.80449962  0.18182522    -0.08400
C2091       C  0.18440390  0.81949966  0.16527981    -0.02900
C2092       C  0.15691552  0.82954810  0.15389917     0.03900
N2093       N  0.18012999  0.84674227  0.13762273     0.66400
H2094       H  0.08621282  0.83122973  0.14961324     0.15300
H2095       H  0.18097725  0.79674849  0.19087457     0.15000
N2096       N  0.08916358  0.78350775  0.20407917     0.74100
O2097       O  0.16853627  0.83630270  0.12153897    -0.39300
O2098       O  0.20021567  0.87272474  0.13906033    -0.39300
O2099       O  0.07309366  0.75763538  0.20459894    -0.40000
O2100       O  0.09996665  0.79648845  0.21929751    -0.40100
C2101       C  0.93395210  0.81072131  0.13660389    -0.12300
C2102       C  0.92157423  0.81022734  0.15570150     0.04700
C2103       C  0.88042806  0.81563113  0.16075202    -0.07600
C2104       C  0.85233901  0.82089569  0.14675668    -0.08400
C2105       C  0.86462350  0.82139121  0.12761187    -0.02900
C2106       C  0.90614636  0.81615569  0.12260511     0.03900
N2107       N  0.91994273  0.81538391  0.10341178     0.66400
H2108       H  0.96482815  0.80620486  0.13241099     0.15300
H2109       H  0.82179281  0.82560544  0.15102611     0.15000
N2110       N  0.86863502  0.81775577  0.17997348     0.74100
O2111       O  0.95949906  0.83573064  0.09649617    -0.39300
O2112       O  0.90239520  0.79226205  0.09551684    -0.39300
O2113       O  0.88890898  0.84135883  0.18727367    -0.40000
O2114       O  0.82781554  0.79880726  0.18726513    -0.40100
C2115       C  0.94861086  0.75915037  0.22909210    -0.12300
C2116       C  0.92146261  0.75756696  0.21252230     0.04700
C2117       C  0.86845479  0.73860436  0.21180501    -0.07600
C2118       C  0.84363998  0.72241648  0.22761286    -0.08400
C2119       C  0.86999144  0.72465314  0.24455346    -0.02900
C2120       C  0.92350937  0.74309178  0.24508049     0.03900
N2121       N  0.95311744  0.74613370  0.26162089     0.66400
H2122       H  0.98946551  0.77351115  0.22984771     0.15300
H2123       H  0.80275855  0.70833580  0.22652165     0.15000
N2124       N  0.83892634  0.73505363  0.19514978     0.74100
O2125       O  0.97947381  0.73333132  0.26295409    -0.39300
O2126       O  0.96380389  0.76661488  0.27196899    -0.39300
O2127       O  0.83204371  0.71555842  0.18434714    -0.40000
O2128       O  0.80791808  0.74510830  0.19445702    -0.40100
C2129       C  0.68938296  0.97270355  0.15422543    -0.12300
C2130       C  0.69960040  0.98120248  0.17293416     0.04700
C2131       C  0.67055722  0.96197481  0.18749907    -0.07600
C2132       C  0.63028472  0.93583159  0.18297873    -0.08400
C2133       C  0.61799534  0.92847070  0.16420915    -0.02900
C2134       C  0.64885156  0.94686739  0.14978506     0.03900
N2135       N  0.63808852  0.94013453  0.13042879     0.66400
H2136       H  0.71091132  0.98680008  0.14277420     0.15300
H2137       H  0.60660391  0.92190709  0.19417805     0.15000
N2138       N  0.68060247  0.96859543  0.20690931     0.74100
O2139       O  0.61697568  0.95169026  0.12085460    -0.39300
O2140       O  0.66149653  0.92901666  0.12204148    -0.39300
O2141       O  0.64993944  0.97416360  0.21620130    -0.40000
O2142       O  0.70984005  0.96122292  0.21562398    -0.40100
C2143       C  0.75081042  0.60653848  0.22481229    -0.12300
C2144       C  0.73835992  0.59240356  0.24234424     0.04700
C2145       C  0.73199148  0.56502677  0.24327536    -0.07600
C2146       C  0.73864253  0.55276904  0.22707715    -0.08400
C2147       C  0.75215518  0.56711603  0.20972071    -0.02900
C2148       C  0.75791010  0.59432052  0.20864124     0.03900
N2149       N  0.76902272  0.60958045  0.19120516     0.66400
H2150       H  0.75561559  0.62744818  0.22357876     0.15300
H2151       H  0.73407675  0.53189756  0.22821798     0.15000
N2152       N  0.71803900  0.54901386  0.26041003     0.74100
O2153       O  0.73199120  0.60848504  0.18156522    -0.39300
O2154       O  0.81360432  0.62952235  0.18839620    -0.39300
O2155       O  0.67184595  0.53064314  0.26291464    -0.40000
O2156       O  0.75303413  0.54788106  0.27014115    -0.40100
C2157       C  0.13404186  0.70304982  0.09440411    -0.12300
C2158       C  0.09561972  0.69021940  0.10848954     0.04700
C2159       C  0.10473129  0.70249069  0.12641968    -0.07600
C2160       C  0.15221394  0.72553265  0.13008907    -0.08400
C2161       C  0.19087580  0.73682804  0.11624097    -0.02900
C2162       C  0.18137277  0.72582437  0.09817791     0.03900
N2163       N  0.22032220  0.73653283  0.08377088     0.66400
H2164       H  0.12838855  0.69497460  0.08035555     0.15300
H2165       H  0.15928443  0.73436978  0.14398397     0.15000
N2166       N  0.06677059  0.69231890  0.14110070     0.74100
O2167       O  0.24801329  0.72479654  0.08102564    -0.39300
O2168       O  0.21799409  0.75242934  0.07112268    -0.39300
O2169       O  0.07013569  0.67684987  0.15384918    -0.40000
O2170       O  0.04232752  0.70565684  0.14454108    -0.40100
C2171       C  0.87046483  0.60054790  0.15195158    -0.12300
C2172       C  0.84995478  0.57152158  0.15195345     0.04700
C2173       C  0.86998379  0.55996988  0.13858290    -0.07600
C2174       C  0.90901050  0.57736931  0.12585395    -0.08400
C2175       C  0.92963962  0.60641680  0.12603590    -0.02900
C2176       C  0.90954790  0.61786865  0.13931748     0.03900
N2177       N  0.92702491  0.64699023  0.14004325     0.66400
H2178       H  0.85574240  0.61019275  0.16175107     0.15300
H2179       H  0.92397428  0.56794333  0.11593924     0.15000
N2180       N  0.85265913  0.53079774  0.13793669     0.74100
O2181       O  0.95298645  0.65978014  0.15404547    -0.39300
O2182       O  0.90298434  0.65724112  0.13083116    -0.39300
O2183       O  0.82295416  0.51715048  0.12491397    -0.40000
O2184       O  0.87755121  0.52065650  0.14672472    -0.40100
C2185       C  0.06008500  0.60899625  0.03701926    -0.12300
C2186       C  0.02260121  0.58140840  0.03476573     0.04700
C2187       C  0.97912997  0.57019333  0.04697498    -0.07600
C2188       C  0.97610162  0.58566335  0.06191381    -0.08400
C2189       C  0.01523340  0.61263692  0.06512462    -0.02900
C2190       C  0.05682806  0.62472981  0.05189444     0.03900
N2191       N  0.09662892  0.65268196  0.05327286     0.66400
H2192       H  0.09333898  0.61814876  0.02761239     0.15300
H2193       H  0.94270956  0.57607066  0.07121647     0.15000
N2194       N  0.93674618  0.54332920  0.04421935     0.74100
O2195       O  0.13932749  0.65716376  0.06028635    -0.39300
O2196       O  0.09472845  0.67111333  0.04279902    -0.39300
O2197       O  0.92690041  0.52459923  0.05659411    -0.40000
O2198       O  0.90151576  0.54107421  0.03310374    -0.40100
C2199       C  0.46158295  0.69659322  0.16085095    -0.12300
C2200       C  0.45966830  0.69081969  0.18025701     0.04700
C2201       C  0.46574796  0.71181753  0.19292324    -0.07600
C2202       C  0.47027694  0.73712080  0.18599888    -0.08400
C2203       C  0.46776637  0.74167769  0.16667306    -0.02900
C2204       C  0.46496567  0.72148144  0.15401347     0.03900
N2205       N  0.46299620  0.72533627  0.13414681     0.66400
H2206       H  0.45864128  0.68127845  0.15076172     0.15300
H2207       H  0.47127630  0.75228505  0.19586489     0.15000
N2208       N  0.46291798  0.70718567  0.21279128     0.74100
O2209       O  0.50463916  0.73652903  0.12474924    -0.39300
O2210       O  0.42107235  0.71139664  0.12572132    -0.39300
O2211       O  0.50366299  0.71934322  0.22220144    -0.40000
O2212       O  0.41972810  0.69841926  0.22104278    -0.40100
C2213       C  0.51596987  0.61375724  0.22050471    -0.12300
C2214       C  0.48390979  0.62603275  0.22342453     0.04700
C2215       C  0.48008112  0.63508291  0.24151789    -0.07600
C2216       C  0.50982778  0.63275977  0.25614408    -0.08400
C2217       C  0.54492052  0.62248890  0.25285667    -0.02900
C2218       C  0.54722360  0.61243218  0.23488382     0.03900
N2219       N  0.58263346  0.60196004  0.23072704     0.63700
H2220       H  0.51927358  0.60673395  0.20663671     0.15300
H2221       H  0.50816895  0.64089956  0.26978468     0.15000
N2222       N  0.44748058  0.64742676  0.24518995     0.74100
O2223       O  0.56648773  0.57608926  0.23089746    -0.39300
O2224       O  0.62450983  0.61752542  0.22224930    -0.39300
O2225       O  0.40260976  0.63243809  0.25173507    -0.40000
O2226       O  0.46782283  0.67331564  0.24708340    -0.40100
C2227       C  0.32985886  0.93146865  0.13629629    -0.12300
C2228       C  0.32992588  0.91739635  0.12011690     0.04700
C2229       C  0.31118940  0.92256338  0.10319764    -0.07600
C2230       C  0.29376301  0.94253907  0.10261404    -0.08400
C2231       C  0.29506009  0.95748240  0.11881894    -0.02900
C2232       C  0.31266455  0.95129281  0.13588112     0.03900
N2233       N  0.31327516  0.96464966  0.15304129     0.66400
H2234       H  0.34324117  0.92695056  0.14948931     0.15300
H2235       H  0.28118376  0.94710831  0.08928834     0.15000
N2236       N  0.31323589  0.90914639  0.08636552     0.74100
O2237       O  0.27456724  0.95346901  0.16395870    -0.39300
O2238       O  0.35624616  0.98163110  0.15964854    -0.39300
O2239       O  0.27565939  0.88617391  0.08231282    -0.40000
O2240       O  0.35588901  0.91719603  0.07785147    -0.40100
C2241       C  0.35395506  0.59572523  0.15207963    -0.12300
C2242       C  0.38850701  0.59296604  0.16456403     0.04700
C2243       C  0.39505143  0.56897828  0.16370845    -0.07600
C2244       C  0.36670001  0.54840927  0.15089395    -0.08400
C2245       C  0.33123120  0.55076481  0.13856746    -0.02900
C2246       C  0.32543785  0.57506493  0.13923970     0.03900
N2247       N  0.29075715  0.57935441  0.12723665     0.66400
H2248       H  0.34820262  0.61395587  0.15242535     0.15300
H2249       H  0.37348839  0.53054127  0.15055151     0.15000
N2250       N  0.43159330  0.56537632  0.17517655     0.74100
O2251       O  0.24604185  0.57301266  0.13337368    -0.39300
O2252       O  0.30929921  0.59670588  0.11376651    -0.39300
O2253       O  0.41549604  0.54912468  0.18930616    -0.40000
O2254       O  0.47570741  0.57175522  0.16839330    -0.40100
C2255       C  0.22489811  0.99250084  0.06654273    -0.12300
C2256       C  0.21874103  0.00551510  0.08252700     0.04700
C2257       C  0.18532015  0.01752864  0.08160041    -0.07600
C2258       C  0.15890769  0.01623726  0.06491162    -0.08400
C2259       C  0.16468055  0.00288646  0.04904177    -0.02900
C2260       C  0.19804959  0.99081019  0.05002927     0.03900
N2261       N  0.20241750  0.97498649  0.03496721     0.66400
H2262       H  0.25012524  0.98295294  0.06692072     0.15300
H2263       H  0.15173715  0.53734613  0.06170880     0.15000
N2264       N  0.19925939  0.54397122  0.09390310     0.74100
O2265       O  0.24163204  0.98571589  0.02426071    -0.39300
O2266       O  0.17523981  0.94896735  0.03552863    -0.39300
O2267       O  0.22311322  0.56990518  0.09127399    -0.40000
O2268       O  0.13914964  0.01410402  0.10890662    -0.40100
loop_ 
_geom_bond_atom_site_label_1 
_geom_bond_atom_site_label_2 
_geom_bond_distance 
_geom_bond_site_symmetry_2 
_ccdc_geom_bond_type 
C1            N6   1.360       .  A
C1         N1136   1.366       .  A
C1         C1122   1.484       .  S
N2            C3   1.367       .  A
N2         C1135   1.367       .  A
C3         N1138   1.359       .  A
C3         C1111   1.496       .  S
N4            C5   1.352       .  A
N4         C1137   1.360       .  A
C5            N6   1.349       .  A
C5         C1097   1.482       .  S
C7            N8   1.360       .  A
C7           N12   1.358       .  A
C7         C1080   1.466       .  S
N8            C9   1.358       .  A
C9           N10   1.361       .  A
C9         C1066   1.487       .  S
N10          C11   1.356       .  A
C11          N12   1.356       .  A
C11        C1108   1.483       .  S
C13          N14   1.365       .  A
C13          N18   1.360       .  A
C13        C1024   1.480       .  S
N14          C15   1.364   1_455  A
C15          N16   1.361       .  A
C15        C1041   1.505       .  S
N16          C17   1.361   1_655  A
C17          N18   1.357       .  A
C17        C1055   1.499       .  S
C19          N20   1.359       .  A
C19          N24   1.366       .  A
C19        C2130   1.491   1_545  S
N20          C21   1.359       .  A
C21          N22   1.357       .  A
C21        C1013   1.485       .  S
N22          C23   1.360       .  A
C23          N24   1.362       .  A
C23        C1038   1.496       .  S
C25          N26   1.358       .  A
C25          N30   1.361       .  A
C25         C954   1.499       .  S
N26          C27   1.360   1_455  A
C27          N28   1.362       .  A
C27         C982   1.474       .  S
N28          C29   1.359       .  A
C29          N30   1.362   1_655  A
C29         C968   1.495       .  S
C31          N32   1.363       .  A
C31          N36   1.359       .  A
C31         C929   1.485       .  S
N32          C33   1.365       .  A
C33          N34   1.357       .  A
C33         C971   1.498       .  S
N34          C35   1.358       .  A
C35          N36   1.355       .  A
C35         C940   1.480       .  S
Zr37         O38   2.436       .  S
Zr37         O39   2.431       .  S
Zr37         O40   2.445       .  S
Zr37         O43   2.424       .  S
Zr37         O45   2.378       .  S
Zr37         O46   2.384       .  S
Zr37         O47   2.406       .  S
Zr37         O48   2.413       .  S
O38          H94   0.990       .  S
O38         H102   0.990       .  S
O39          C59   1.284       .  A
O40          C61   1.285       .  A
O41         Zr51   2.418       .  S
O41          C60   1.283       .  A
O42         Zr50   2.418       .  S
O42          C61   1.284       .  A
O43          C60   1.283       .  A
O44         Zr52   2.450       .  S
O44          C59   1.289       .  A
O45         Zr50   2.376       .  S
O45         Zr52   2.369       .  S
O46         Zr51   2.387       .  S
O46         Zr52   2.359       .  S
O46          H81   0.983       .  S
O47         Zr50   2.384       .  S
O47         Zr67   2.405       .  S
O47          H84   0.968       .  S
O48         Zr51   2.394       .  S
O48         Zr67   2.409       .  S
Zr49         O74   2.438       .  S
Zr49         O68   2.410       .  S
Zr49         O76   2.466       .  S
Zr49         O64   2.447       .  S
Zr49         O55   2.401       .  S
Zr49         O56   2.412       .  S
Zr49         O57   2.380       .  S
Zr49         O58   2.381       .  S
Zr50         O69   2.433       .  S
Zr50         O62   2.435       .  S
Zr50         O63   2.405       .  S
Zr50         O56   2.398       .  S
Zr50         O57   2.377       .  S
Zr51         O53   2.434       .  S
Zr51         O75   2.435       .  S
Zr51         O77   2.430       .  S
Zr51         O55   2.391       .  S
Zr51         O58   2.383       .  S
Zr52         O78   2.438       .  S
Zr52         O79   2.436       .  S
Zr52         O54   2.436       .  S
Zr52         O55   2.406       .  S
Zr52         O56   2.401       .  S
O53          H90   0.990       .  S
O54          H85   0.990       .  S
O54          H99   0.990       .  S
O56          H82   0.967       .  S
O57         Zr67   2.365       .  S
O58         Zr67   2.372       .  S
O58          H83   0.964       .  S
C59         C957   1.498       .  S
C60        C1094   1.460       .  S
C61        C1027   1.483       .  S
O62          H98   0.989       .  S
O63          C65   1.281       .  A
O64          C65   1.288       .  A
C65        C1069   1.472       .  S
O66         Zr67   2.438       .  S
O66          H95   0.990       .  S
Zr67         O70   2.437       .  S
Zr67         O71   2.438       .  S
Zr67         O72   2.453       .  S
O68          C73   1.282       .  A
O69          H86   0.989       .  S
O69         H101   0.990       .  S
O70          H87   0.990       .  S
O71          H91   0.990       .  S
O71         H100   0.990       .  S
O72          C73   1.288       .  A
C73         C926   1.496       .  S
O74          H93   0.990       .  S
O74          H97   0.990       .  S
O75          H89   0.990       .  S
O75          H96   0.990       .  S
O76          C80   1.291       .  A
O77          C80   1.284       .  A
O78          H88   0.990       .  S
O79          H92   0.990       .  S
C80         C999   1.482       .  S
Zr103       O104   2.439       .  S
Zr103       O105   2.431       .  S
Zr103       O106   2.424       .  S
Zr103       O109   2.416       .  S
Zr103       O111   2.377       .  S
Zr103       O112   2.383       .  S
Zr103       O113   2.402       .  S
Zr103       O114   2.393       .  S
O104        H160   0.989       .  S
O104        H168   0.990       .  S
O105        C125   1.284       .  A
O106        C127   1.281       .  A
O107       Zr117   2.436       .  S
O107        C126   1.286       .  A
O108       Zr116   2.445       .  S
O108        C127   1.287       .  A
O109        C126   1.281       .  A
O110       Zr118   2.421       .  S
O110        C125   1.281       .  A
O111       Zr116   2.398       .  S
O111       Zr118   2.380       .  S
O112       Zr117   2.392       .  S
O112       Zr118   2.381       .  S
O112        H147   0.966       .  S
O113       Zr116   2.406       .  S
O113       Zr133   2.402       .  S
O113        H150   0.964       .  S
O114       Zr117   2.390       .  S
O114       Zr133   2.386       .  S
Zr115       O140   2.441       .  S
Zr115       O134   2.431       .  S
Zr115       O142   2.403       .  S
Zr115       O130   2.412       .  S
Zr115       O121   2.396       .  S
Zr115       O122   2.398       .  S
Zr115       O123   2.371       .  S
Zr115       O124   2.371       .  S
Zr116       O135   2.435       .  S
Zr116       O128   2.434       .  S
Zr116       O129   2.453       .  S
Zr116       O122   2.398       .  S
Zr116       O123   2.397       .  S
Zr117       O119   2.435       .  S
Zr117       O141   2.439       .  S
Zr117       O143   2.441       .  S
Zr117       O121   2.387       .  S
Zr117       O124   2.389       .  S
Zr118       O144   2.436       .  S
Zr118       O145   2.436       .  S
Zr118       O120   2.437       .  S
Zr118       O121   2.394       .  S
Zr118       O122   2.394       .  S
O119        H156   0.990       .  S
O120        H151   0.990       .  S
O120        H165   0.990       .  S
O122        H148   0.966       .  S
O123       Zr133   2.380       .  S
O124       Zr133   2.377       .  S
O124        H149   0.964       .  S
C125        C898   1.485       .  S
C126        C912   1.469       .  S
C127        C884   1.483       .  S
O128        H164   0.990       .  S
O129        C131   1.288       .  A
O130        C131   1.282       .  A
C131        C985   1.492       .  S
O132       Zr133   2.435       .  S
O132        H161   0.990       .  S
Zr133       O136   2.434       .  S
Zr133       O137   2.440       .  S
Zr133       O138   2.424       .  S
O134        C139   1.285       .  A
O135        H152   0.990       .  S
O135        H167   0.990       .  S
O136        H153   0.990       .  S
O137        H157   0.990       .  S
O137        H166   0.990       .  S
O138        C139   1.281       .  A
C139       C1010   1.489       .  S
O140        H159   0.990       .  S
O140        H163   0.990       .  S
O141        H155   0.990       .  S
O141        H162   0.990       .  S
O142        C146   1.279       .  A
O143        C146   1.287       .  A
O144        H154   0.990       .  S
O145        H158   0.990       .  S
C146       C1083   1.470       .  S
C169        N170   1.359       .  A
C169        N174   1.367       .  A
C169        C842   1.494       .  S
N170        C171   1.358       .  A
C171        N172   1.359       .  A
C171        C873   1.476       .  S
N172        C173   1.358       .  A
C173        N174   1.361       .  A
C173        C856   1.493       .  S
C175        N176   1.367       .  A
C175        N180   1.364       .  A
C175        C828   1.491       .  S
N176        C177   1.358       .  A
C177        N178   1.355       .  A
C177        C859   1.501       .  S
N178        C179   1.359       .  A
C179        N180   1.361       .  A
C179        C915   1.495       .  S
C181        N182   1.357       .  A
C181        N186   1.358       .  A
C181        C789   1.495       .  S
N182        C183   1.363       .  A
C183        N184   1.364       .  A
C183        C800   1.490       .  S
N184        C185   1.362       .  A
C185        N186   1.356       .  A
C185        C814   1.481       .  S
C187        N188   1.362       .  A
C187        N192   1.353       .  A
C187        C772   1.494       .  S
N188        C189   1.364       .  A
C189        N190   1.361       .  A
C189        C803   1.488       .  S
N190        C191   1.358       .  A
C191        N192   1.355       .  A
C191        C901   1.473       .  S
C193        N194   1.356       .  A
C193        N198   1.350       .  A
C193        C758   1.478       .  S
N194        C195   1.360       .  A
C195        N196   1.368       .  A
C195        C733   1.498       .  S
N196        C197   1.366       .  A
C197        N198   1.358       .  A
C197        C747   1.496       .  S
C199        N200   1.353       .  A
C199        N204   1.355   1_655  A
C199        C887   1.489       .  S
N200        C201   1.356   1_655  A
C201        N202   1.367       .  A
C201        C744   1.500       .  S
N202        C203   1.369       .  A
C203        N204   1.365       .  A
C203        C719   1.494       .  S
Zr205       O206   2.436       .  S
Zr205       O207   2.412       .  S
Zr205       O208   2.447       .  S
Zr205       O211   2.455       .  S
Zr205       O213   2.378       .  S
Zr205       O214   2.382   1_655  S
Zr205       O216   2.405   1_655  S
Zr205      O1349   2.404       .  S
O206        H262   0.990       .  S
O206        H270   0.990       .  S
O207        C227   1.280       .  A
O208        C229   1.289       .  A
O209       Zr219   2.409       .  S
O209        C228   1.281       .  A
O210      Zr1352   2.406       .  S
O210        C229   1.279       .  A
O211        C228   1.289   1_655  A
O212       Zr220   2.444       .  S
O212        C227   1.288       .  A
O213       Zr220   2.364       .  S
O213      Zr1352   2.376       .  S
O214       Zr219   2.381       .  S
O214       Zr220   2.368   1_455  S
O214        H249   0.965   1_455  S
O215       Zr218   2.393       .  S
O215       Zr235   2.403   1_655  S
O215      Zr1339   2.400   1_545  S
O215        H252   0.966       .  S
O216       Zr219   2.391       .  S
O216      Zr1369   2.403       .  S
Zr217       O242   2.438       .  S
Zr217       O236   2.425       .  S
Zr217       O244   2.435       .  S
Zr217       O232   2.453       .  S
Zr217       O224   2.402       .  S
Zr217       O225   2.375       .  S
Zr217       O226   2.379       .  S
Zr217      O1357   2.404   1_545  S
Zr218       O237   2.435       .  S
Zr218       O230   2.434       .  S
Zr218       O231   2.399   1_655  S
Zr218      O1344   2.404       .  S
Zr218       O224   2.388   1_655  S
Zr218       O225   2.382   1_655  S
Zr218      O1347   2.374   1_545  S
Zr219       O221   2.435       .  S
Zr219       O243   2.437       .  S
Zr219      O1379   2.403       .  S
Zr219       O223   2.389       .  S
Zr219      O1360   2.382       .  S
Zr220       O246   2.438   1_655  S
Zr220       O247   2.435   1_655  S
Zr220       O222   2.438       .  S
Zr220       O223   2.403   1_655  S
Zr220      O1358   2.402   1_655  S
O221        H258   0.990       .  S
O222        H253   0.990       .  S
O222        H267   0.990       .  S
O223      Zr1351   2.409       .  S
O224      Zr1354   2.398   1_445  S
O224        H250   0.966       .  S
O225       Zr235   2.377       .  S
O226       Zr235   2.366       .  S
O226      Zr1353   2.379   1_545  S
O226        H251   0.968       .  S
C227        C775   1.481       .  S
C228        C730   1.475   1_455  S
C229        C845   1.491       .  S
O230        H266   0.990       .  S
O231        C233   1.278       .  A
O232        C233   1.288       .  A
C233        C716   1.469       .  S
O234       Zr235   2.439       .  S
O234        H263   0.990       .  S
Zr235       O238   2.435       .  S
Zr235       O239   2.441       .  S
Zr235       O240   2.437       .  S
Zr235      O1350   2.401   1_545  S
O236        C241   1.285       .  A
O237        H254   0.990       .  S
O237        H269   0.990       .  S
O238        H255   0.990       .  S
O239        H259   0.990       .  S
O239        H268   0.990       .  S
O240        C241   1.285       .  A
C241        C786   1.491       .  S
O242        H261   0.990       .  S
O242        H265   0.990       .  S
O243        H257   0.990       .  S
O243        H264   0.989       .  S
O244        C248   1.288       .  A
O245      Zr1353   2.419       .  S
O245        C248   1.282   1_565  A
O246        H256   0.990   1_455  S
O247       H1394   0.990       .  S
C248        C831   1.472       .  S
H260       O1381   0.990       .  S
C271        N272   1.356       .  A
C271        N276   1.362       .  A
C271        C702   1.479       .  S
N272        C273   1.356       .  A
C273        N274   1.360       .  A
C273        C674   1.476       .  S
N274        C275   1.361       .  A
C275        N276   1.363       .  A
C275        C688   1.492       .  S
C277        N282   1.359   1_565  A
C277       N1412   1.367       .  A
C277        C660   1.475       .  S
N278        C279   1.366       .  A
N278       C1411   1.371       .  A
C279       N1414   1.357       .  A
C279        C691   1.500       .  S
N280        C281   1.354   1_565  A
N280       C1413   1.357       .  A
C281        N282   1.351       .  A
C281        C646   1.474       .  S
C283        N284   1.366       .  A
C283        N288   1.361       .  A
C283       C1738   1.489       .  S
N284        C285   1.364       .  A
C285        N286   1.352       .  A
C285        C621   1.500       .  S
N286        C287   1.360       .  A
C287        N288   1.361       .  A
C287        C632   1.483       .  S
C289        N290   1.356       .  A
C289        N294   1.368       .  A
C289        C576   1.490   1_455  S
N290        C291   1.354       .  A
C291        N292   1.359       .  A
C291        C590   1.469       .  S
N292        C293   1.359       .  A
C293        N294   1.368       .  A
C293        C618   1.502       .  S
C295        N296   1.362       .  A
C295        N300   1.362       .  A
C295        C537   1.496       .  S
N296        C297   1.363       .  A
C297        N298   1.354       .  A
C297        C548   1.487       .  S
N298        C299   1.355       .  A
C299        N300   1.356       .  A
C299        C562   1.478       .  S
C301        N302   1.358       .  A
C301        N306   1.357       .  A
C301        C509   1.493   1_455  S
N302        C303   1.363       .  A
C303        N304   1.360       .  A
C303        C551   1.494       .  S
N304        C305   1.360       .  A
C305        N306   1.355       .  A
C305        C520   1.473       .  S
Zr307       O308   2.436       .  S
Zr307       O309   2.417       .  S
Zr307       O310   2.461       .  S
Zr307       O313   2.440       .  S
Zr307       O315   2.374       .  S
Zr307       O316   2.389       .  S
Zr307       O317   2.401       .  S
Zr307       O318   2.403       .  S
O308        H364   0.990       .  S
O308        H372   0.990       .  S
O309        C329   1.282       .  A
O310        C331   1.290       .  A
O311       Zr321   2.419       .  S
O311        C330   1.282       .  A
O312       Zr320   2.406       .  S
O312        C331   1.279       .  A
O313        C330   1.286       .  A
O314       Zr322   2.450       .  S
O314        C329   1.287       .  A
O315       Zr320   2.378       .  S
O315       Zr322   2.369       .  S
O316       Zr321   2.391       .  S
O316       Zr322   2.372       .  S
O316        H351   0.965       .  S
O317       Zr320   2.399       .  S
O317       Zr337   2.405       .  S
O317        H354   0.964       .  S
O318       Zr321   2.399       .  S
O318       Zr337   2.398       .  S
Zr319       O344   2.437       .  S
Zr319       O338   2.420       .  S
Zr319       O346   2.450       .  S
Zr319       O334   2.457       .  S
Zr319       O325   2.409       .  S
Zr319       O326   2.407       .  S
Zr319       O327   2.372       .  S
Zr319       O328   2.381       .  S
Zr320       O339   2.438       .  S
Zr320       O332   2.434       .  S
Zr320       O333   2.403       .  S
Zr320       O326   2.390       .  S
Zr320       O327   2.383       .  S
Zr321       O323   2.434       .  S
Zr321       O345   2.436       .  S
Zr321       O347   2.442       .  S
Zr321       O325   2.392       .  S
Zr321       O328   2.374       .  S
Zr322       O348   2.435       .  S
Zr322       O349   2.437       .  S
Zr322       O324   2.438       .  S
Zr322       O325   2.411       .  S
Zr322       O326   2.406       .  S
O323        H360   0.990       .  S
O324        H355   0.990       .  S
O324        H369   0.990       .  S
O326        H352   0.966       .  S
O327       Zr337   2.372       .  S
O328       Zr337   2.364       .  S
O328        H353   0.965       .  S
C329        C534   1.486       .  S
C330        C677   1.465       .  S
C331        C607   1.478       .  S
O332        H368   0.990       .  S
O333        C335   1.279       .  A
O334        C335   1.291       .  A
C335        C649   1.493       .  S
O336       Zr337   2.438       .  S
O336        H365   0.991       .  S
Zr337       O340   2.438       .  S
Zr337       O341   2.439       .  S
Zr337       O342   2.444       .  S
O338        C343   1.284       .  A
O339        H356   0.990       .  S
O339        H371   0.990       .  S
O340        H357   0.990       .  S
O341        H361   0.989       .  S
O341        H370   0.990       .  S
O342        C343   1.286       .  A
C343        C506   1.484       .  S
O344        H363   0.990       .  S
O344        H367   0.990       .  S
O345        H359   0.990       .  S
O345        H366   0.990       .  S
O346        C350   1.289       .  A
O347        C350   1.287       .  A
O348        H358   0.990       .  S
O349        H362   0.990       .  S
C350        C579   1.484       .  S
Zr373       O374   2.440   1_565  S
Zr373       O375   2.423   1_455  S
Zr373       O379   2.396   1_565  S
Zr373      O1510   2.388       .  S
Zr373       O382   2.372   1_565  S
Zr373       O384   2.395   1_565  S
Zr373      O1515   2.373   1_455  S
Zr373      O1517   2.397       .  S
O374        H430   0.991       .  S
O374       H1572   0.990   1_545  S
O375        C395   1.281       .  A
O376      Zr1507   2.403       .  S
O376        C397   1.281       .  A
O377       Zr387   2.457       .  S
O377        C396   1.289       .  A
O378       Zr386   2.445   1_455  S
O378        C397   1.285       .  A
O379        C396   1.278       .  A
O380       Zr388   2.413       .  S
O380       C1529   1.281       .  A
O381       Zr386   2.396       .  S
O381       Zr388   2.372       .  S
O381      Zr1507   2.375   1_655  S
O382       Zr387   2.391       .  S
O382      Zr1522   2.373   1_445  S
O382        H417   0.966   1_455  S
O383       Zr386   2.402   1_455  S
O383      Zr1507   2.399       .  S
O383      Zr1537   2.383       .  S
O383        H420   0.964       .  S
O384       Zr387   2.391       .  S
O384       Zr403   2.398       .  S
Zr385       O410   2.439   1_455  S
Zr385       O404   2.431       .  S
Zr385       O400   2.424   1_455  S
Zr385      O1546   2.425       .  S
Zr385       O392   2.406   1_454  S
Zr385       O393   2.375   1_554  S
Zr385      O1525   2.395   1_454  S
Zr385      O1528   2.382   1_554  S
Zr386       O405   2.435   1_655  S
Zr386       O398   2.436       .  S
Zr386       O399   2.432   1_556  S
Zr386       O392   2.406       .  S
Zr386       O393   2.395   1_655  S
Zr387       O389   2.436       .  S
Zr387       O411   2.437       .  S
Zr387       O413   2.446   1_556  S
Zr387       O391   2.392   1_455  S
Zr387       O394   2.400       .  S
Zr388       O415   2.435       .  S
Zr388       O390   2.436       .  S
Zr388      O1548   2.437       .  S
Zr388       O392   2.393       .  S
Zr388      O1516   2.379   1_655  S
Zr388      O1525   2.388       .  S
O389        H426   0.990       .  S
O390        H421   0.990       .  S
O390        H435   0.990       .  S
O391      Zr1519   2.392   1_646  S
O391      Zr1522   2.386   1_545  S
O392        H418   0.966       .  S
O393      Zr1537   2.377       .  S
O394       Zr403   2.387       .  S
O394      Zr1519   2.383   1_546  S
O394        H419   0.964   1_556  S
C395        C663   1.481       .  S
C395       O1514   1.284       .  A
C396        C565   1.475       .  S
C397        C593   1.480       .  S
O398        H434   0.990       .  S
O399        C401   1.284       .  A
O400        C401   1.280       .  A
C401        C943   1.469       .  S
O402       Zr403   2.439       .  S
O402        H431   0.991       .  S
Zr403       O407   2.438       .  S
Zr403      O1540   2.438   1_545  S
Zr403       O408   2.416   1_556  S
Zr403      O1517   2.394   1_545  S
Zr403      O1527   2.376   1_545  S
O404        C409   1.283       .  A
O405        H422   0.990       .  S
O405        H437   0.990       .  S
O406      Zr1537   2.438       .  S
O406        H423   0.990       .  S
O407        H427   0.990       .  S
O407        H436   0.990       .  S
O408       C1543   1.280       .  A
C409       C1125   1.471       .  S
C409       O1542   1.278       .  A
O410        H433   0.990       .  S
O410       H1563   0.991       .  S
O411        H425   0.990       .  S
O411        H432   0.990       .  S
O412      Zr1519   2.438   1_545  S
O412        C416   1.285       .  A
O413        C416   1.287       .  A
O414      Zr1522   2.435   1_545  S
O414        H424   0.990       .  S
O415        H428   0.990   1_556  S
C416       C1052   1.486       .  S
H429       O1544   0.991       .  S
H438       O1508   0.990       .  S
Zr439       O440   2.439       .  S
Zr439       O441   2.412       .  S
Zr439       O442   2.417       .  S
Zr439       O445   2.401       .  S
Zr439       O447   2.375       .  S
Zr439       O448   2.375       .  S
Zr439       O449   2.395       .  S
Zr439       O450   2.393       .  S
O440        H496   0.990       .  S
O440        H504   0.990       .  S
O441        C461   1.280       .  A
O442        C463   1.280       .  A
O443       Zr453   2.441       .  S
O443        C462   1.285       .  A
O444       Zr452   2.448       .  S
O444        C463   1.287       .  A
O445        C462   1.281       .  A
O446       Zr454   2.418       .  S
O446        C461   1.282       .  A
O447       Zr452   2.385       .  S
O447       Zr454   2.375       .  S
O448       Zr453   2.389       .  S
O448       Zr454   2.374       .  S
O448        H483   0.966       .  S
O449       Zr452   2.394       .  S
O449       Zr469   2.397       .  S
O449        H486   0.966       .  S
O450       Zr453   2.393       .  S
O450       Zr469   2.397       .  S
Zr451       O476   2.440       .  S
Zr451       O470   2.425       .  S
Zr451       O478   2.431       .  S
Zr451       O466   2.422       .  S
Zr451       O457   2.392       .  S
Zr451       O458   2.404       .  S
Zr451       O459   2.378       .  S
Zr451       O460   2.377       .  S
Zr452       O471   2.436       .  S
Zr452       O464   2.435       .  S
Zr452       O465   2.422       .  S
Zr452       O458   2.406       .  S
Zr452       O459   2.394       .  S
Zr453       O455   2.434       .  S
Zr453       O477   2.437       .  S
Zr453       O479   2.423       .  S
Zr453       O457   2.398       .  S
Zr453       O460   2.398       .  S
Zr454       O480   2.434       .  S
Zr454       O481   2.435       .  S
Zr454       O456   2.440       .  S
Zr454       O457   2.392       .  S
Zr454       O458   2.386       .  S
O455        H492   0.990       .  S
O456        H487   0.990       .  S
O456        H501   0.990       .  S
O458        H484   0.966       .  S
O459       Zr469   2.370       .  S
O460       Zr469   2.381       .  S
O460        H485   0.966       .  S
C461        C635   1.472       .  S
C462        C523   1.486       .  S
C463        C705   1.475       .  S
O464        H500   0.990       .  S
O465        C467   1.282       .  A
O466        C467   1.282       .  A
C467        C870   1.457       .  S
O468       Zr469   2.438       .  S
O468        H497   0.991       .  S
Zr469       O472   2.438       .  S
Zr469       O473   2.439       .  S
Zr469       O474   2.423       .  S
O470        C475   1.282       .  A
O471        H488   0.990       .  S
O471        H503   0.990       .  S
O472        H489   0.990       .  S
O473        H493   0.990       .  S
O473        H502   0.990       .  S
O474        C475   1.282       .  A
C475        C817   1.476       .  S
O476        H495   0.990       .  S
O476        H499   0.991       .  S
O477        H491   0.990       .  S
O477        H498   0.990       .  S
O478        C482   1.286       .  A
O479        C482   1.282       .  A
O480        H490   0.990       .  S
O481        H494   0.990       .  S
C482        C761   1.479       .  S
C505        C506   1.404       .  A
C505        C510   1.398       .  A
C505        H512   1.084       .  S
C506        C507   1.412       .  A
C507        C508   1.400       .  A
C507        N514   1.429       .  S
C508        C509   1.409       .  A
C508        H513   1.083       .  S
C509        C510   1.417       .  A
C510        N511   1.428       .  S
N511        O515   1.262       .  A
N511        O516   1.262       .  A
N514        O518   1.262       .  A
N514        O517   1.262       .  A
C519        C520   1.405       .  A
C519        C524   1.404       .  A
C519        H526   1.084       .  S
C520        C521   1.404       .  A
C521        C522   1.390       .  A
C521        N528   1.427       .  S
C522        C523   1.406       .  A
C522        H527   1.083       .  S
C523        C524   1.415       .  A
C524        N525   1.428       .  S
N525        O529   1.262       .  A
N525        O530   1.262       .  A
N528        O532   1.262       .  A
N528        O531   1.261       .  A
C533        C534   1.405       .  A
C533        C538   1.402       .  A
C533        H540   1.084       .  S
C534        C535   1.410       .  A
C535        C536   1.400       .  A
C535        N542   1.428       .  S
C536        C537   1.409       .  A
C536        H541   1.083       .  S
C537        C538   1.418       .  A
C538        N539   1.429       .  S
N539        O543   1.262       .  A
N539        O544   1.262       .  A
N542        O546   1.262       .  A
N542        O545   1.262       .  A
C547        C548   1.401       .  A
C547        C552   1.399       .  A
C547        H554   1.083       .  S
C548        C549   1.416       .  A
C549        C550   1.398       .  A
C549        N556   1.429       .  S
C550        C551   1.406       .  A
C550        H555   1.082       .  S
C551        C552   1.417       .  A
C552        N553   1.425       .  S
N553        O557   1.262       .  A
N553        O558   1.262       .  A
N556        O560   1.262       .  A
N556        O559   1.262       .  A
C561        C562   1.402       .  A
C561        C566   1.394       .  A
C561        H568   1.084       .  S
C562        C563   1.413       .  A
C563        C564   1.403       .  A
C563        N570   1.428       .  S
C564        C565   1.403       .  A
C564        H569   1.084       .  S
C565        C566   1.413       .  A
C566        N567   1.430       .  S
N567        O571   1.262       .  A
N567        O572   1.262       .  A
N570        O574   1.262       .  A
N570        O573   1.262       .  A
C575        C576   1.402       .  A
C575        C580   1.402       .  A
C575        H582   1.084       .  S
C576        C577   1.419       .  A
C577        C578   1.406       .  A
C577        N584   1.429       .  S
C578        C579   1.401       .  A
C578        H583   1.084       .  S
C579        C580   1.412       .  A
C580        N581   1.427       .  S
N581        O585   1.261       .  A
N581        O586   1.261       .  A
N584        O588   1.262       .  A
N584        O587   1.262       .  A
C589        C590   1.405       .  A
C589        C594   1.406       .  A
C589        H596   1.084       .  S
C590        C591   1.405       .  A
C591        C592   1.387       .  A
C591        N598   1.427       .  S
C592        C593   1.403       .  A
C592        H597   1.082       .  S
C593        C594   1.413       .  A
C594        N595   1.428       .  S
N595        O599   1.262   1_455  A
N595        O600   1.262       .  A
N598        O602   1.261       .  A
N598        O601   1.262   1_455  A
C603        C604   1.405       .  A
C603        C608   1.399       .  A
C603        H610   1.084       .  S
C604       C1417   1.488   1_545  S
C604        C605   1.415       .  A
C605        C606   1.405       .  A
C605        N612   1.426       .  S
C606        C607   1.400       .  A
C606        H611   1.084       .  S
C607        C608   1.411       .  A
C608        N609   1.429       .  S
N609        O613   1.262       .  A
N609        O614   1.262       .  A
N612        O616   1.261       .  A
N612        O615   1.262       .  A
C617        C618   1.405       .  A
C617        C622   1.408       .  A
C617        H624   1.084       .  S
C618        C619   1.419       .  A
C619        C620   1.400       .  A
C619        N626   1.424       .  S
C620        C621   1.400       .  A
C620        H625   1.084       .  S
C621        C622   1.422       .  A
C622        N623   1.429       .  S
N623        O627   1.262       .  A
N623        O628   1.262       .  A
N626        O630   1.262       .  A
N626        O629   1.262       .  A
C631        C632   1.405       .  A
C631        C636   1.393       .  A
C631        H638   1.082       .  S
C632        C633   1.414       .  A
C633        C634   1.397       .  A
C633        N640   1.425       .  S
C634        C635   1.401       .  A
C634        H639   1.084       .  S
C635        C636   1.408       .  A
C636        N637   1.427       .  S
N637        O641   1.262       .  A
N637        O642   1.262       .  A
N640        O644   1.262       .  A
N640        O643   1.262       .  A
C645        C646   1.396       .  A
C645        C650   1.393       .  A
C645        H652   1.085       .  S
C646        C647   1.410       .  A
C647        C648   1.404       .  A
C647        N654   1.428       .  S
C648        C649   1.409       .  A
C648        H653   1.083       .  S
C649        C650   1.422       .  A
C650        N651   1.429       .  S
N651        O655   1.262       .  A
N651        O656   1.262       .  A
N654        O658   1.262       .  A
N654        O657   1.262       .  A
C659        C660   1.402       .  A
C659       C1798   1.403       .  A
C659       H1800   1.084       .  S
C660        C661   1.412       .  A
C661        C662   1.393       .  A
C661        N668   1.430   1_565  S
C662        C663   1.403       .  A
C662        H667   1.084   1_565  S
C663       C1798   1.416       .  A
C664       C1793   1.401       .  A
C664       C1797   1.409       .  A
C664        N665   1.426       .  S
N665        O669   1.262       .  A
N665       O1804   1.261       .  A
H666       C1793   1.084       .  S
N668        O672   1.262       .  A
N668       O1805   1.262   1_545  A
O670       N1799   1.262       .  A
O671       N1802   1.262       .  A
C673        C674   1.404       .  A
C673        C678   1.400       .  A
C673        H680   1.084       .  S
C674        C675   1.411       .  A
C675        C676   1.398       .  A
C675        N682   1.429       .  S
C676        C677   1.400       .  A
C676        H681   1.084       .  S
C677        C678   1.407       .  A
C678        N679   1.428       .  S
N679        O683   1.262       .  A
N679        O684   1.262       .  A
N682        O686   1.262       .  A
N682        O685   1.262       .  A
C687        C688   1.409       .  A
C687        C692   1.409       .  A
C687        H694   1.084       .  S
C688        C689   1.410       .  A
C689        C690   1.397       .  A
C689        N696   1.429       .  S
C690        C691   1.410       .  A
C690        H695   1.083       .  S
C691        C692   1.416       .  A
C692        N693   1.428       .  S
N693        O697   1.262       .  A
N693        O698   1.262       .  A
N696        O700   1.262       .  A
N696        O699   1.262       .  A
C701        C702   1.402       .  A
C701        C706   1.401       .  A
C701        H708   1.084       .  S
C702        C703   1.414       .  A
C703        C704   1.401       .  A
C703        N710   1.429       .  S
C704        C705   1.401       .  A
C704        H709   1.084       .  S
C705        C706   1.412       .  A
C706        N707   1.429       .  S
N707        O711   1.262       .  A
N707        O712   1.262       .  A
N710        O714   1.262       .  A
N710        O713   1.262       .  A
C715        C716   1.397       .  A
C715        C720   1.403       .  A
C715        H722   1.085       .  S
C716        C717   1.407       .  A
C717        C718   1.398       .  A
C717        N724   1.429       .  S
C718        C719   1.408       .  A
C718        H723   1.083       .  S
C719        C720   1.417       .  A
C720        N721   1.425       .  S
N721        O725   1.261       .  A
N721        O726   1.262       .  A
N724        O728   1.262       .  A
N724        O727   1.262   1_455  A
C729        C730   1.398   1_455  A
C729        C734   1.399       .  A
C729        H736   1.085       .  S
C730        C731   1.407       .  A
C731        C732   1.407       .  A
C731        N738   1.429       .  S
C732        C733   1.411   1_655  A
C732        H737   1.083       .  S
C733        C734   1.422       .  A
C734        N735   1.430       .  S
N735        O739   1.262       .  A
N735        O740   1.262       .  A
N738        O742   1.262       .  A
N738        O741   1.262       .  A
C743        C744   1.414   1_655  A
C743        C748   1.403       .  A
C743        H750   1.083       .  S
C744        C745   1.413       .  A
C745        C746   1.399       .  A
C745        N752   1.426       .  S
C746        C747   1.407       .  A
C746        H751   1.083       .  S
C747        C748   1.412   1_455  A
C748        N749   1.428       .  S
N749        O753   1.262   1_655  A
N749        O754   1.262       .  A
N752        O756   1.262       .  A
N752        O755   1.262       .  A
C757        C758   1.402       .  A
C757        C762   1.401       .  A
C757        H764   1.084       .  S
C758        C759   1.414       .  A
C759        C760   1.396       .  A
C759        N766   1.429       .  S
C760        C761   1.402       .  A
C760        H765   1.084       .  S
C761        C762   1.414       .  A
C762        N763   1.428       .  S
N763        O767   1.262       .  A
N763        O768   1.262       .  A
N766        O770   1.262       .  A
N766        O769   1.262       .  A
C771        C772   1.407       .  A
C771        C776   1.402       .  A
C771        H778   1.083       .  S
C772        C773   1.421       .  A
C773        C774   1.397       .  A
C773        N780   1.429       .  S
C774        C775   1.399       .  A
C774        H779   1.084       .  S
C775        C776   1.413       .  A
C776        N777   1.429       .  S
N777        O781   1.262       .  A
N777        O782   1.262       .  A
N780        O784   1.262       .  A
N780        O783   1.262       .  A
C785        C786   1.406       .  A
C785        C790   1.402       .  A
C785        H792   1.084       .  S
C786        C787   1.413       .  A
C787        C788   1.398       .  A
C787        N794   1.428       .  S
C788        C789   1.407       .  A
C788        H793   1.083       .  S
C789        C790   1.418       .  A
C790        N791   1.429       .  S
N791        O795   1.262       .  A
N791        O796   1.262       .  A
N794        O798   1.262       .  A
N794        O797   1.262       .  A
C799        C800   1.404       .  A
C799        C804   1.398       .  A
C799        H806   1.083       .  S
C800        C801   1.414       .  A
C801        C802   1.404       .  A
C801        N808   1.427       .  S
C802        C803   1.405       .  A
C802        H807   1.084       .  S
C803        C804   1.413       .  A
C804        N805   1.428       .  S
N805        O809   1.262       .  A
N805        O810   1.262       .  A
N808        O812   1.262       .  A
N808        O811   1.262       .  A
C813        C814   1.409       .  A
C813        C818   1.405       .  A
C813        H820   1.084       .  S
C814        C815   1.409       .  A
C815        C816   1.399       .  A
C815        N822   1.427       .  S
C816        C817   1.401       .  A
C816        H821   1.084       .  S
C817        C818   1.409       .  A
C818        N819   1.431       .  S
N819        O823   1.262       .  A
N819        O824   1.262       .  A
N822        O826   1.262       .  A
N822        O825   1.261       .  A
C827        C828   1.408       .  A
C827        C832   1.400       .  A
C827       H1968   1.083       .  S
C828        C829   1.419       .  A
C829        C830   1.396       .  A
C829        N836   1.424       .  S
C830        C831   1.394       .  A
C830        H835   1.085       .  S
C831        C832   1.409       .  A
C832       N1967   1.428       .  S
N833       C1966   1.429       .  S
N833        O837   1.262       .  A
N833        O838   1.262       .  A
H834       C1961   1.085       .  S
N836        O840   1.262       .  A
N836        O839   1.262       .  A
C841        C842   1.402       .  A
C841        C846   1.397       .  A
C841       H1982   1.083       .  S
C842        C843   1.419       .  A
C843        C844   1.400       .  A
C843        N850   1.426       .  S
C844        C845   1.402       .  A
C844        H849   1.084       .  S
C845        C846   1.419       .  A
C846       N1981   1.428       .  S
N847       C1980   1.429   1_545  S
N847        O851   1.262   1_545  A
N847        O852   1.262       .  A
H848       C1975   1.082       .  S
N850        O854   1.262       .  A
N850        O853   1.262       .  A
C855        C860   1.405       .  A
C855       C1990   1.409       .  A
C855        H862   1.083       .  S
C856        C857   1.413       .  A
C856       C1989   1.407       .  A
C857        C858   1.404       .  A
C857        N864   1.429       .  S
C858       C1993   1.408       .  A
C858        H863   1.084       .  S
C859        C860   1.416   1_545  A
C859       C1992   1.409       .  A
C860        N861   1.428       .  S
N861        O865   1.262       .  A
N861        O866   1.262       .  A
N864        O868   1.262       .  A
N864        O867   1.262       .  A
C869        C870   1.394       .  A
C869        C874   1.397       .  A
C869        H876   1.084       .  S
C870        C871   1.403       .  A
C871        C872   1.399       .  A
C871        N878   1.430       .  S
C872        C873   1.407       .  A
C872        H877   1.084       .  S
C873        C874   1.414       .  A
C874        N875   1.427       .  S
N875        O879   1.261       .  A
N875        O880   1.262       .  A
N878        O882   1.262       .  A
N878        O881   1.262       .  A
C883        C884   1.404       .  A
C883        C888   1.405       .  A
C883        H890   1.084       .  S
C884        C885   1.412       .  A
C885        C886   1.397       .  A
C885        N892   1.430       .  S
C886        C887   1.405       .  A
C886        H891   1.084       .  S
C887        C888   1.415       .  A
C888        N889   1.428   1_655  S
N889        O893   1.262       .  A
N889        O894   1.262       .  A
N892        O896   1.262       .  A
N892        O895   1.262       .  A
C897        C898   1.408       .  A
C897        C902   1.400       .  A
C897        H904   1.084       .  S
C898        C899   1.415       .  A
C899        C900   1.396       .  A
C899        N906   1.429       .  S
C900        C901   1.400       .  A
C900        H905   1.084       .  S
C901        C902   1.408       .  A
C902        N903   1.428       .  S
N903        O907   1.262       .  A
N903        O908   1.262       .  A
N906        O910   1.262       .  A
N906        O909   1.262       .  A
C911        C912   1.394       .  A
C911        C916   1.398       .  A
C911        H918   1.085       .  S
C912        C913   1.407       .  A
C913        C914   1.397       .  A
C913        N920   1.429       .  S
C914        C915   1.410       .  A
C914        H919   1.083       .  S
C915        C916   1.419       .  A
C916        N917   1.423       .  S
N917        O921   1.262       .  A
N917        O922   1.262       .  A
N920        O924   1.262       .  A
N920        O923   1.262       .  A
C925        C926   1.411       .  A
C925        C930   1.399       .  A
C925        H932   1.083       .  S
C926        C927   1.415       .  A
C927        C928   1.402       .  A
C927        N934   1.428       .  S
C928        C929   1.405       .  A
C928        H933   1.084       .  S
C929        C930   1.410       .  A
C930        N931   1.429       .  S
N931        O935   1.262       .  A
N931        O936   1.262       .  A
N934        O938   1.262       .  A
N934        O937   1.262       .  A
C939        C940   1.404       .  A
C939        C944   1.396       .  A
C939        H946   1.083       .  S
C940        C941   1.415       .  A
C941        C942   1.402       .  A
C941        N948   1.429       .  S
C942        C943   1.401       .  A
C942        H947   1.084       .  S
C943        C944   1.408       .  A
C944        N945   1.429   1_655  S
N945        O949   1.262       .  A
N945        O950   1.262       .  A
N948        O952   1.262       .  A
N948        O951   1.262       .  A
C953        C954   1.407       .  A
C953        C958   1.403       .  A
C953        H960   1.083       .  S
C954        C955   1.417       .  A
C955        C956   1.404       .  A
C955        N962   1.429       .  S
C956        C957   1.407       .  A
C956        H961   1.084       .  S
C957        C958   1.417       .  A
C958        N959   1.429       .  S
N959        O963   1.262       .  A
N959        O964   1.262       .  A
N962        O966   1.262       .  A
N962        O965   1.262       .  A
C967        C968   1.404       .  A
C967        C972   1.399       .  A
C967        H974   1.084       .  S
C968        C969   1.417       .  A
C969        C970   1.405       .  A
C969        N976   1.428       .  S
C970        C971   1.407       .  A
C970        H975   1.083       .  S
C971        C972   1.419       .  A
C972        N973   1.429       .  S
N973        O977   1.262       .  A
N973        O978   1.262       .  A
N976        O980   1.262       .  A
N976        O979   1.262       .  A
C981        C982   1.402       .  A
C981        C986   1.404       .  A
C981        H988   1.084       .  S
C982        C983   1.406       .  A
C983        C984   1.395       .  A
C983        N990   1.429       .  S
C984        C985   1.410       .  A
C984        H989   1.084       .  S
C985        C986   1.416       .  A
C986        N987   1.428       .  S
N987        O991   1.262       .  A
N987        O992   1.262       .  A
N990        O994   1.262       .  A
N990        O993   1.262       .  A
C995        C996   1.405       .  A
C995       C1000   1.401       .  A
C995       H1002   1.083       .  S
C996       C1153   1.497       .  S
C996        C997   1.422       .  A
C997        C998   1.408       .  A
C997       N1004   1.430       .  S
C998        C999   1.401       .  A
C998       H1003   1.084       .  S
C999       C1000   1.410       .  A
C1000      N1001   1.427       .  S
N1001      O1005   1.262       .  A
N1001      O1006   1.262       .  A
N1004      O1008   1.262       .  A
N1004      O1007   1.262       .  A
C1009      C1010   1.405       .  A
C1009      C1014   1.398       .  A
C1009      H1016   1.084       .  S
C1010      C1011   1.417       .  A
C1011      C1012   1.402       .  A
C1011      N1018   1.429       .  S
C1012      C1013   1.404       .  A
C1012      H1017   1.084       .  S
C1013      C1014   1.413       .  A
C1014      N1015   1.429       .  S
N1015      O1019   1.262       .  A
N1015      O1020   1.262       .  A
N1018      O1022   1.262       .  A
N1018      O1021   1.262       .  A
C1023      C1024   1.406       .  A
C1023      C1028   1.406       .  A
C1023      H1030   1.084       .  S
C1024      C1025   1.408       .  A
C1025      C1026   1.396       .  A
C1025      N1032   1.426       .  S
C1026      C1027   1.403       .  A
C1026      H1031   1.084       .  S
C1027      C1028   1.412       .  A
C1028      N1029   1.428       .  S
N1029      O1033   1.262       .  A
N1029      O1034   1.262       .  A
N1032      O1036   1.261       .  A
N1032      O1035   1.262       .  A
C1037      C1038   1.404       .  A
C1037      C1042   1.401       .  A
C1037      H1044   1.084       .  S
C1038      C1039   1.414       .  A
C1039      C1040   1.406       .  A
C1039      N1046   1.428       .  S
C1040      C1041   1.412       .  A
C1040      H1045   1.083       .  S
C1041      C1042   1.416       .  A
C1042      N1043   1.425       .  S
N1043      O1047   1.261       .  A
N1043      O1048   1.262       .  A
N1046      O1050   1.262       .  A
N1046      O1049   1.262       .  A
C1051      C1052   1.403       .  A
C1051      C1056   1.406       .  A
C1051      H1058   1.084       .  S
C1052      C1053   1.411   1_455  A
C1053      C1054   1.400       .  A
C1053      N1060   1.429       .  S
C1054      C1055   1.407   1_655  A
C1054      H1059   1.083       .  S
C1055      C1056   1.421       .  A
C1056      N1057   1.429       .  S
N1057      O1061   1.262       .  A
N1057      O1062   1.262       .  A
N1060      O1064   1.262       .  A
N1060      O1063   1.262       .  A
C1065      C1066   1.404       .  A
C1065      C1070   1.393       .  A
C1065      H1072   1.084       .  S
C1066      C1067   1.418       .  A
C1067      C1068   1.403       .  A
C1067      N1074   1.425       .  S
C1068      C1069   1.399       .  A
C1068      H1073   1.084       .  S
C1069      C1070   1.409       .  A
C1070      N1071   1.429       .  S
N1071      O1075   1.262       .  A
N1071      O1076   1.262       .  A
N1074      O1078   1.262       .  A
N1074      O1077   1.262       .  A
C1079      C1080   1.399       .  A
C1079      C1084   1.395       .  A
C1079      H1086   1.085       .  S
C1080      C1081   1.408       .  A
C1081      C1082   1.399       .  A
C1081      N1088   1.427       .  S
C1082      C1083   1.402       .  A
C1082      H1087   1.084       .  S
C1083      C1084   1.412       .  A
C1084      N1085   1.429       .  S
N1085      O1089   1.262       .  A
N1085      O1090   1.262       .  A
N1088      O1092   1.261       .  A
N1088      O1091   1.262       .  A
C1093      C1094   1.396       .  A
C1093      C1098   1.392       .  A
C1093      H1100   1.085       .  S
C1094      C1095   1.402       .  A
C1095      C1096   1.404       .  A
C1095      N1102   1.430       .  S
C1096      C1097   1.413       .  A
C1096      H1101   1.083       .  S
C1097      C1098   1.412       .  A
C1098      N1099   1.428       .  S
N1099      O1103   1.262       .  A
N1099      O1104   1.262       .  A
N1102      O1106   1.262       .  A
N1102      O1105   1.262       .  A
C1107      C1108   1.406       .  A
C1107      C1112   1.405       .  A
C1107      H1114   1.084       .  S
C1108      C1109   1.409       .  A
C1109      C1110   1.394       .  A
C1109      N1116   1.430       .  S
C1110      C1111   1.409       .  A
C1110      H1115   1.081       .  S
C1111      C1112   1.414       .  A
C1112      N1113   1.426       .  S
N1113      O1117   1.262       .  A
N1113      O1118   1.262       .  A
N1116      O1120   1.262       .  A
N1116      O1119   1.262       .  A
C1121      C1122   1.406       .  A
C1121      C1126   1.390       .  A
C1121      H1128   1.084       .  S
C1122      C1123   1.415       .  A
C1123      C1124   1.402       .  A
C1123      N2264   1.426       .  S
C1124      C1125   1.402       .  A
C1124      H2263   1.084       .  S
C1125      C1126   1.408       .  A
C1126      N1127   1.429       .  S
N1127      O1131   1.262       .  A
N1127      O1132   1.262       .  A
H1129      C2258   1.084       .  S
N1130      C2257   1.427       .  S
N1130      O2268   1.262       .  A
N1130      O1133   1.261       .  A
O1134      N2264   1.262       .  A
C1135      N1140   1.357   1_545  A
C1135      C2256   1.481       .  S
N1136      C1137   1.367       .  A
C1137      C2245   1.495       .  S
N1138      C1139   1.351   1_545  A
C1139      N1140   1.350       .  A
C1139      C2231   1.482       .  S
C1141      N1142   1.362       .  A
C1141      N1146   1.360       .  A
C1141      C2214   1.470       .  S
N1142      C1143   1.359       .  A
C1143      N1144   1.358       .  A
C1143      C2200   1.484       .  S
N1144      C1145   1.354       .  A
C1145      N1146   1.356       .  A
C1145      C2242   1.485       .  S
C1147      N1148   1.367       .  A
C1147      N1152   1.361       .  A
C1147      C2158   1.495       .  S
N1148      C1149   1.366   1_455  A
C1149      N1150   1.360       .  A
C1149      C2175   1.495       .  S
N1150      C1151   1.359   1_655  A
C1151      N1152   1.351       .  A
C1151      C2189   1.496       .  S
C1153      N1154   1.358       .  A
C1153      N1158   1.367       .  A
N1154      C1155   1.359       .  A
C1155      N1156   1.357       .  A
C1155      C2147   1.484       .  S
N1156      C1157   1.362       .  A
C1157      N1158   1.364       .  A
C1157      C2172   1.500       .  S
C1159      N1160   1.356       .  A
C1159      N1164   1.363       .  A
C1159      C2088   1.496       .  S
N1160      C1161   1.358   1_455  A
C1161      N1162   1.357       .  A
C1161      C2116   1.473       .  S
N1162      C1163   1.355       .  A
C1163      N1164   1.362   1_655  A
C1163      C2102   1.482       .  S
C1165      N1166   1.363       .  A
C1165      N1170   1.361       .  A
C1165      C2063   1.498       .  S
N1166      C1167   1.364       .  A
C1167      N1168   1.355       .  A
C1167      C2105   1.488       .  S
N1168      C1169   1.356       .  A
C1169      N1170   1.356       .  A
C1169      C2074   1.487       .  S
Zr1171     O1172   2.436       .  S
Zr1171     O1173   2.423       .  S
Zr1171     O1174   2.425       .  S
Zr1171     O1177   2.415       .  S
Zr1171     O1179   2.379       .  S
Zr1171     O1180   2.381       .  S
Zr1171     O1181   2.400       .  S
Zr1171     O1182   2.405       .  S
O1172      H1228   0.991       .  S
O1172      H1236   0.990       .  S
O1173      C1193   1.282       .  A
O1174      C1195   1.282       .  A
O1175     Zr1185   2.407       .  S
O1175      C1194   1.280       .  A
O1176     Zr1184   2.420       .  S
O1176      C1195   1.282       .  A
O1177      C1194   1.281       .  A
O1178     Zr1186   2.445       .  S
O1178      C1193   1.288       .  A
O1179     Zr1184   2.377       .  S
O1179     Zr1186   2.370       .  S
O1180     Zr1185   2.378       .  S
O1180     Zr1186   2.362       .  S
O1180      H1215   0.979       .  S
O1181     Zr1184   2.386       .  S
O1181     Zr1201   2.398       .  S
O1181      H1218   0.968       .  S
O1182     Zr1185   2.391       .  S
O1182     Zr1201   2.407       .  S
Zr1183     O1208   2.439       .  S
Zr1183     O1202   2.420       .  S
Zr1183     O1210   2.464       .  S
Zr1183     O1198   2.450       .  S
Zr1183     O1189   2.406       .  S
Zr1183     O1190   2.413       .  S
Zr1183     O1191   2.382       .  S
Zr1183     O1192   2.381       .  S
Zr1184     O1203   2.434       .  S
Zr1184     O1196   2.435       .  S
Zr1184     O1197   2.401       .  S
Zr1184     O1190   2.398       .  S
Zr1184     O1191   2.383       .  S
Zr1185     O1187   2.432       .  S
Zr1185     O1209   2.437       .  S
Zr1185     O1211   2.409       .  S
Zr1185     O1189   2.391       .  S
Zr1185     O1192   2.382       .  S
Zr1186     O1212   2.435       .  S
Zr1186     O1213   2.436       .  S
Zr1186     O1188   2.437       .  S
Zr1186     O1189   2.409       .  S
Zr1186     O1190   2.396       .  S
O1187      H1224   0.989       .  S
O1188      H1219   0.990       .  S
O1188      H1233   0.990       .  S
O1190      H1216   0.968       .  S
O1191     Zr1201   2.366       .  S
O1192     Zr1201   2.368       .  S
O1192      H1217   0.964       .  S
C1193      C2091   1.489       .  S
C1194      C2228   1.456       .  S
C1195      C2161   1.461       .  S
O1196      H1232   0.990       .  S
O1197      C1199   1.280       .  A
O1198      C1199   1.288       .  A
C1199      C2203   1.468       .  S
O1200     Zr1201   2.438       .  S
O1200      H1229   0.990       .  S
Zr1201     O1204   2.437       .  S
Zr1201     O1205   2.437       .  S
Zr1201     O1206   2.442       .  S
O1202      C1207   1.283       .  A
O1203      H1220   0.989       .  S
O1203      H1235   0.990       .  S
O1204      H1221   0.990       .  S
O1205      H1225   0.990       .  S
O1205      H1234   0.990       .  S
O1206      C1207   1.286       .  A
C1207      C2060   1.487       .  S
O1208      H1227   0.990       .  S
O1208      H1231   0.990       .  S
O1209      H1223   0.990       .  S
O1209      H1230   0.990       .  S
O1210      C1214   1.290       .  A
O1211      C1214   1.280       .  A
O1212      H1222   0.989       .  S
O1213      H1226   0.990       .  S
C1214      C2133   1.474       .  S
Zr1237     O1238   2.436       .  S
Zr1237     O1239   2.422       .  S
Zr1237     O1240   2.424       .  S
Zr1237     O1243   2.411       .  S
Zr1237     O1245   2.373       .  S
Zr1237     O1246   2.382       .  S
Zr1237     O1247   2.397       .  S
Zr1237     O1248   2.397       .  S
O1238      H1294   0.990       .  S
O1238      H1302   0.990       .  S
O1239      C1259   1.283       .  A
O1240      C1261   1.282       .  A
O1241     Zr1251   2.444       .  S
O1241      C1260   1.288       .  A
O1242     Zr1250   2.441       .  S
O1242      C1261   1.286       .  A
O1243      C1260   1.282       .  A
O1244     Zr1252   2.423       .  S
O1244      C1259   1.282       .  A
O1245     Zr1250   2.390       .  S
O1245     Zr1252   2.374       .  S
O1246     Zr1251   2.388       .  S
O1246     Zr1252   2.376       .  S
O1246      H1281   0.966       .  S
O1247     Zr1250   2.397       .  S
O1247     Zr1267   2.398       .  S
O1247      H1284   0.965       .  S
O1248     Zr1251   2.394       .  S
O1248     Zr1267   2.394       .  S
Zr1249     O1274   2.440       .  S
Zr1249     O1268   2.429       .  S
Zr1249     O1276   2.397       .  S
Zr1249     O1264   2.401       .  S
Zr1249     O1255   2.400       .  S
Zr1249     O1256   2.400       .  S
Zr1249     O1257   2.369       .  S
Zr1249     O1258   2.371       .  S
Zr1250     O1269   2.435       .  S
Zr1250     O1262   2.435       .  S
Zr1250     O1263   2.435       .  S
Zr1250     O1256   2.398       .  S
Zr1250     O1257   2.395       .  S
Zr1251     O1253   2.435       .  S
Zr1251     O1275   2.437       .  S
Zr1251     O1277   2.451       .  S
Zr1251     O1255   2.390       .  S
Zr1251     O1258   2.387       .  S
Zr1252     O1278   2.435       .  S
Zr1252     O1279   2.436       .  S
Zr1252     O1254   2.437       .  S
Zr1252     O1255   2.401       .  S
Zr1252     O1256   2.394       .  S
O1253      H1290   0.990       .  S
O1254      H1285   0.990       .  S
O1254      H1299   0.990       .  S
O1256      H1282   0.966       .  S
O1257     Zr1267   2.375       .  S
O1258     Zr1267   2.376       .  S
O1258      H1283   0.964       .  S
C1259      C2032   1.482       .  S
C1260      C2046   1.477       .  S
C1261      C2018   1.477       .  S
O1262      H1298   0.990       .  S
O1263      C1265   1.284       .  A
O1264      C1265   1.280       .  A
C1265      C2119   1.484       .  S
O1266     Zr1267   2.435       .  S
O1266      H1295   0.990       .  S
Zr1267     O1270   2.435       .  S
Zr1267     O1271   2.437       .  S
Zr1267     O1272   2.432       .  S
O1268      C1273   1.284       .  A
O1269      H1286   0.990       .  S
O1269      H1301   0.990       .  S
O1270      H1287   0.990       .  S
O1271      H1291   0.990       .  S
O1271      H1300   0.990       .  S
O1272      C1273   1.283       .  A
C1273      C2144   1.492       .  S
O1274      H1293   0.990       .  S
O1274      H1297   0.990       .  S
O1275      H1289   0.990       .  S
O1275      H1296   0.990       .  S
O1276      C1280   1.278       .  A
O1277      C1280   1.288       .  A
O1278      H1288   0.989       .  S
O1279      H1292   0.990       .  S
C1280      C2217   1.472       .  S
C1303      N1304   1.360       .  A
C1303      N1308   1.366       .  A
C1303      C1976   1.496       .  S
N1304      C1305   1.359       .  A
C1305      N1306   1.358       .  A
C1305      C2007   1.480       .  S
N1306      C1307   1.360       .  A
C1307      N1308   1.361       .  A
C1307      C1990   1.500       .  S
C1309      N1310   1.368       .  A
C1309      N1314   1.360       .  A
C1309      C1962   1.477       .  S
N1310      C1311   1.361       .  A
C1311      N1312   1.355       .  A
C1311      C1993   1.494       .  S
N1312      C1313   1.359       .  A
C1313      N1314   1.357       .  A
C1313      C2049   1.490       .  S
C1315      N1316   1.355       .  A
C1315      N1320   1.359       .  A
C1315      C1923   1.488       .  S
N1316      C1317   1.362       .  A
C1317      N1318   1.365       .  A
C1317      C1934   1.491       .  S
N1318      C1319   1.364       .  A
C1319      N1320   1.358       .  A
C1319      C1948   1.485       .  S
C1321      N1322   1.359       .  A
C1321      N1326   1.351       .  A
C1321      C1906   1.488       .  S
N1322      C1323   1.361       .  A
C1323      N1324   1.362       .  A
C1323      C1937   1.487       .  S
N1324      C1325   1.360       .  A
C1325      N1326   1.354       .  A
C1325      C2035   1.466       .  S
C1327      N1328   1.357       .  A
C1327      N1332   1.350       .  A
C1327      C1892   1.481       .  S
N1328      C1329   1.360       .  A
C1329      N1330   1.368       .  A
C1329      C1867   1.497   1_455  S
N1330      C1331   1.364       .  A
C1331      N1332   1.358       .  A
C1331      C1881   1.496       .  S
C1333      N1334   1.355       .  A
C1333      N1338   1.358   1_655  A
C1333      C2021   1.494       .  S
N1334      C1335   1.357   1_655  A
C1335      N1336   1.366       .  A
C1335      C1878   1.500       .  S
N1336      C1337   1.366       .  A
C1337      N1338   1.365       .  A
C1337      C1853   1.496       .  S
Zr1339     O1340   2.435       .  S
Zr1339     O1341   2.403       .  S
Zr1339     O1342   2.446       .  S
Zr1339     O1345   2.446       .  S
Zr1339     O1347   2.375       .  S
Zr1339     O1348   2.383   1_655  S
Zr1339     O1350   2.403   1_655  S
O1340      H1396   0.990       .  S
O1340      H1404   0.990       .  S
O1341      C1361   1.279       .  A
O1342      C1363   1.290       .  A
O1343     Zr1353   2.416       .  S
O1343      C1362   1.283   1_455  A
O1344      C1363   1.279   1_545  A
O1345      C1362   1.287       .  A
O1346     Zr1354   2.441       .  S
O1346      C1361   1.287       .  A
O1347     Zr1354   2.366       .  S
O1348     Zr1353   2.381       .  S
O1348     Zr1354   2.364   1_455  S
O1348      H1383   0.966   1_455  S
O1349     Zr1352   2.394       .  S
O1349     Zr1369   2.401   1_655  S
O1349      H1386   0.966       .  S
O1350     Zr1353   2.391       .  S
Zr1351     O1376   2.439       .  S
Zr1351     O1370   2.434       .  S
Zr1351     O1378   2.462       .  S
Zr1351     O1366   2.469       .  S
Zr1351     O1358   2.409       .  S
Zr1351     O1359   2.377       .  S
Zr1351     O1360   2.382       .  S
Zr1352     O1371   2.435       .  S
Zr1352     O1364   2.433       .  S
Zr1352     O1365   2.402   1_655  S
Zr1352     O1358   2.390   1_655  S
Zr1352     O1359   2.384   1_655  S
Zr1353     O1355   2.434       .  S
Zr1353     O1377   2.437       .  S
Zr1353     O1357   2.393       .  S
Zr1354     O1380   2.435   1_655  S
Zr1354     O1381   2.436   1_655  S
Zr1354     O1356   2.438       .  S
Zr1354     O1357   2.401   1_655  S
O1355      H1392   0.990       .  S
O1356      H1387   0.990       .  S
O1356      H1401   0.990       .  S
O1358      H1384   0.966       .  S
O1359     Zr1369   2.373       .  S
O1360     Zr1369   2.373       .  S
O1360      H1385   0.968       .  S
C1361      C1909   1.477       .  S
C1362      C1864   1.471       .  S
C1363      C1979   1.487       .  S
O1364      H1400   0.990       .  S
O1365      C1367   1.278       .  A
O1366      C1367   1.292       .  A
C1367      C1850   1.476       .  S
O1368     Zr1369   2.438       .  S
O1368      H1397   0.990       .  S
Zr1369     O1372   2.436       .  S
Zr1369     O1373   2.439       .  S
Zr1369     O1374   2.434       .  S
O1370      C1375   1.287       .  A
O1371      H1388   0.990       .  S
O1371      H1403   0.990       .  S
O1372      H1389   0.990       .  S
O1373      H1393   0.990       .  S
O1373      H1402   0.990       .  S
O1374      C1375   1.284       .  A
C1375      C1920   1.496       .  S
O1376      H1395   0.990       .  S
O1376      H1399   0.990       .  S
O1377      H1391   0.990       .  S
O1377      H1398   0.990       .  S
O1378      C1382   1.292       .  A
O1379      C1382   1.279       .  A
O1380      H1390   0.990   1_455  S
C1382      C1965   1.488       .  S
C1405      N1406   1.357       .  A
C1405      N1410   1.359       .  A
C1405      C1836   1.474       .  S
N1406      C1407   1.358       .  A
C1407      N1408   1.360       .  A
C1407      C1808   1.476       .  S
N1408      C1409   1.359       .  A
C1409      N1410   1.360       .  A
C1409      C1822   1.482       .  S
C1411      N1416   1.356       .  A
C1411      C1794   1.483       .  S
N1412      C1413   1.362       .  A
C1413      C1825   1.492       .  S
N1414      C1415   1.352       .  A
C1415      N1416   1.347       .  A
C1415      C1780   1.464       .  S
C1417      N1418   1.363       .  A
C1417      N1422   1.365       .  A
N1418      C1419   1.359       .  A
C1419      N1420   1.351       .  A
C1419      C1755   1.489       .  S
N1420      C1421   1.357       .  A
C1421      N1422   1.364       .  A
C1421      C1766   1.481       .  S
C1423      N1424   1.355       .  A
C1423      N1428   1.361       .  A
C1423      C1710   1.477   1_455  S
N1424      C1425   1.357       .  A
C1425      N1426   1.360       .  A
C1425      C1724   1.471       .  S
N1426      C1427   1.358       .  A
C1427      N1428   1.364       .  A
C1427      C1752   1.493       .  S
C1429      N1430   1.359       .  A
C1429      N1434   1.364       .  A
C1429      C1671   1.492       .  S
N1430      C1431   1.361       .  A
C1431      N1432   1.353       .  A
C1431      C1682   1.488       .  S
N1432      C1433   1.356       .  A
C1433      N1434   1.357       .  A
C1433      C1696   1.485       .  S
C1435      N1436   1.357       .  A
C1435      N1440   1.358       .  A
C1435      C1643   1.487   1_455  S
N1436      C1437   1.361       .  A
C1437      N1438   1.356       .  A
C1437      C1685   1.482       .  S
N1438      C1439   1.357       .  A
C1439      N1440   1.357       .  A
C1439      C1654   1.471       .  S
Zr1441     O1442   2.436       .  S
Zr1441     O1443   2.425       .  S
Zr1441     O1444   2.464       .  S
Zr1441     O1447   2.448       .  S
Zr1441     O1449   2.376       .  S
Zr1441     O1450   2.387       .  S
Zr1441     O1451   2.406       .  S
Zr1441     O1452   2.407       .  S
O1442      H1498   0.990       .  S
O1442      H1506   0.990       .  S
O1443      C1463   1.284       .  A
O1444      C1465   1.290       .  A
O1445     Zr1455   2.407       .  S
O1445      C1464   1.280       .  A
O1446     Zr1454   2.404       .  S
O1446      C1465   1.279       .  A
O1447      C1464   1.287       .  A
O1448     Zr1456   2.433       .  S
O1448      C1463   1.284       .  A
O1449     Zr1454   2.374       .  S
O1449     Zr1456   2.370       .  S
O1450     Zr1455   2.389       .  S
O1450     Zr1456   2.373       .  S
O1450      H1485   0.965       .  S
O1451     Zr1454   2.395       .  S
O1451     Zr1471   2.406       .  S
O1451      H1488   0.965       .  S
O1452     Zr1455   2.393       .  S
O1452     Zr1471   2.403       .  S
Zr1453     O1478   2.438       .  S
Zr1453     O1472   2.416       .  S
Zr1453     O1480   2.451       .  S
Zr1453     O1468   2.444       .  S
Zr1453     O1459   2.399       .  S
Zr1453     O1460   2.403       .  S
Zr1453     O1461   2.374       .  S
Zr1453     O1462   2.376       .  S
Zr1454     O1473   2.438       .  S
Zr1454     O1466   2.433       .  S
Zr1454     O1467   2.393       .  S
Zr1454     O1460   2.389       .  S
Zr1454     O1461   2.380       .  S
Zr1455     O1457   2.434       .  S
Zr1455     O1479   2.437       .  S
Zr1455     O1481   2.425       .  S
Zr1455     O1459   2.392       .  S
Zr1455     O1462   2.376       .  S
Zr1456     O1482   2.436       .  S
Zr1456     O1483   2.435       .  S
Zr1456     O1458   2.438       .  S
Zr1456     O1459   2.404       .  S
Zr1456     O1460   2.397       .  S
O1457      H1494   0.990       .  S
O1458      H1489   0.990       .  S
O1458      H1503   0.990       .  S
O1460      H1486   0.966       .  S
O1461     Zr1471   2.366       .  S
O1462     Zr1471   2.370       .  S
O1462      H1487   0.966       .  S
C1463      C1668   1.481       .  S
C1464      C1811   1.465       .  S
C1465      C1741   1.480       .  S
O1466      H1502   0.989       .  S
O1467      C1469   1.277       .  A
O1468      C1469   1.288       .  A
C1469      C1783   1.481       .  S
O1470     Zr1471   2.437       .  S
O1470      H1499   0.990       .  S
Zr1471     O1474   2.437       .  S
Zr1471     O1475   2.439       .  S
Zr1471     O1476   2.446       .  S
O1472      C1477   1.284       .  A
O1473      H1490   0.990       .  S
O1473      H1505   0.990       .  S
O1474      H1491   0.990       .  S
O1475      H1495   0.990       .  S
O1475      H1504   0.990       .  S
O1476      C1477   1.286       .  A
C1477      C1640   1.491       .  S
O1478      H1497   0.990       .  S
O1478      H1501   0.990       .  S
O1479      H1493   0.990       .  S
O1479      H1500   0.990       .  S
O1480      C1484   1.290       .  A
O1481      C1484   1.284       .  A
O1482      H1492   0.990       .  S
O1483      H1496   0.990       .  S
C1484      C1713   1.490       .  S
Zr1507     O1508   2.441       .  S
Zr1507     O1509   2.426   1_455  S
Zr1507     O1513   2.415       .  S
Zr1507     O1516   2.377       .  S
Zr1507     O1518   2.393       .  S
O1508      H1564   0.991       .  S
O1509      C1529   1.281       .  A
O1510      C1531   1.277       .  A
O1511     Zr1521   2.448       .  S
O1511      C1530   1.287       .  A
O1512     Zr1520   2.457       .  S
O1512      C1531   1.287   1_655  A
O1513      C1530   1.281       .  A
O1514     Zr1522   2.421       .  S
O1515     Zr1520   2.394       .  S
O1515     Zr1522   2.374       .  S
O1516     Zr1521   2.395       .  S
O1516      H1551   0.966       .  S
O1517     Zr1520   2.398   1_455  S
O1517      H1554   0.965       .  S
O1518     Zr1521   2.393       .  S
O1518     Zr1537   2.393       .  S
Zr1519     O1544   2.440   1_455  S
Zr1519     O1538   2.432   1_565  S
Zr1519     O1534   2.427   1_455  S
Zr1519     O1526   2.410   1_454  S
Zr1519     O1527   2.379   1_554  S
Zr1520     O1539   2.435   1_655  S
Zr1520     O1532   2.435       .  S
Zr1520     O1533   2.430   1_556  S
Zr1520     O1526   2.413       .  S
Zr1520     O1527   2.400   1_655  S
Zr1521     O1523   2.436       .  S
Zr1521     O1545   2.436       .  S
Zr1521     O1547   2.452   1_556  S
Zr1521     O1525   2.392   1_455  S
Zr1521     O1528   2.396       .  S
Zr1522     O1549   2.435       .  S
Zr1522     O1524   2.435       .  S
Zr1522     O1526   2.395       .  S
O1523      H1560   0.990       .  S
O1524      H1555   0.990       .  S
O1524      H1569   0.990       .  S
O1526      H1552   0.966       .  S
O1528     Zr1537   2.387       .  S
O1528      H1553   0.964   1_556  S
C1529      C1797   1.469       .  S
C1530      C1699   1.475       .  S
C1531      C1727   1.489       .  S
O1532      H1568   0.990       .  S
O1533      C1535   1.283       .  A
O1534      C1535   1.280       .  A
C1535      C2077   1.464       .  S
O1536     Zr1537   2.438       .  S
O1536      H1565   0.990       .  S
Zr1537     O1541   2.437       .  S
Zr1537     O1542   2.403   1_556  S
O1538      C1543   1.283       .  A
O1539      H1556   0.990       .  S
O1539      H1571   0.990       .  S
O1540      H1557   0.990       .  S
O1541      H1561   0.990       .  S
O1541      H1570   0.990       .  S
C1543      C2259   1.480       .  S
O1544      H1567   0.990       .  S
O1545      H1559   0.990       .  S
O1545      H1566   0.990       .  S
O1546      C1550   1.283       .  A
O1547      C1550   1.288       .  A
O1548      H1558   0.990       .  S
O1549      H1562   0.990   1_556  S
C1550      C2186   1.484       .  S
Zr1573     O1574   2.440       .  S
Zr1573     O1575   2.427       .  S
Zr1573     O1576   2.427       .  S
Zr1573     O1579   2.412       .  S
Zr1573     O1581   2.375       .  S
Zr1573     O1582   2.376       .  S
Zr1573     O1583   2.401       .  S
Zr1573     O1584   2.399       .  S
O1574      H1630   0.990       .  S
O1574      H1638   0.990       .  S
O1575      C1595   1.282       .  A
O1576      C1597   1.282       .  A
O1577     Zr1587   2.424       .  S
O1577      C1596   1.281       .  A
O1578     Zr1586   2.439       .  S
O1578      C1597   1.285       .  A
O1579      C1596   1.283       .  A
O1580     Zr1588   2.411       .  S
O1580      C1595   1.281       .  A
O1581     Zr1586   2.385       .  S
O1581     Zr1588   2.375       .  S
O1582     Zr1587   2.390       .  S
O1582     Zr1588   2.375       .  S
O1582      H1617   0.965       .  S
O1583     Zr1586   2.396       .  S
O1583     Zr1603   2.392       .  S
O1583      H1620   0.965       .  S
O1584     Zr1587   2.396       .  S
O1584     Zr1603   2.401       .  S
Zr1585     O1610   2.440       .  S
Zr1585     O1604   2.430       .  S
Zr1585     O1612   2.431       .  S
Zr1585     O1600   2.425       .  S
Zr1585     O1591   2.391       .  S
Zr1585     O1592   2.405       .  S
Zr1585     O1593   2.377       .  S
Zr1585     O1594   2.378       .  S
Zr1586     O1605   2.437       .  S
Zr1586     O1598   2.434       .  S
Zr1586     O1599   2.417       .  S
Zr1586     O1592   2.403       .  S
Zr1586     O1593   2.393       .  S
Zr1587     O1589   2.437       .  S
Zr1587     O1611   2.438       .  S
Zr1587     O1613   2.422       .  S
Zr1587     O1591   2.391       .  S
Zr1587     O1594   2.397       .  S
Zr1588     O1614   2.434       .  S
Zr1588     O1615   2.435       .  S
Zr1588     O1590   2.437       .  S
Zr1588     O1591   2.391       .  S
Zr1588     O1592   2.385       .  S
O1589      H1626   0.990       .  S
O1590      H1621   0.990       .  S
O1590      H1635   0.990       .  S
O1592      H1618   0.966       .  S
O1593     Zr1603   2.367       .  S
O1594     Zr1603   2.382       .  S
O1594      H1619   0.965       .  S
C1595      C1769   1.476       .  S
C1596      C1657   1.486       .  S
C1597      C1839   1.475       .  S
O1598      H1634   0.990       .  S
O1599      C1601   1.281       .  A
O1600      C1601   1.282       .  A
C1601      C2004   1.456       .  S
O1602     Zr1603   2.438       .  S
O1602      H1631   0.991       .  S
Zr1603     O1606   2.439       .  S
Zr1603     O1607   2.437       .  S
Zr1603     O1608   2.422       .  S
O1604      C1609   1.283       .  A
O1605      H1622   0.990       .  S
O1605      H1637   0.990       .  S
O1606      H1623   0.991       .  S
O1607      H1627   0.990       .  S
O1607      H1636   0.990       .  S
O1608      C1609   1.281       .  A
C1609      C1951   1.474       .  S
O1610      H1629   0.990       .  S
O1610      H1633   0.990       .  S
O1611      H1625   0.990       .  S
O1611      H1632   0.990       .  S
O1612      C1616   1.286       .  A
O1613      C1616   1.281       .  A
O1614      H1624   0.990       .  S
O1615      H1628   0.990       .  S
C1616      C1895   1.476       .  S
C1639      C1640   1.407       .  A
C1639      C1644   1.398       .  A
C1639      H1646   1.084       .  S
C1640      C1641   1.415       .  A
C1641      C1642   1.401       .  A
C1641      N1648   1.428       .  S
C1642      C1643   1.405       .  A
C1642      H1647   1.084       .  S
C1643      C1644   1.414       .  A
C1644      N1645   1.429       .  S
N1645      O1649   1.262   1_655  A
N1645      O1650   1.262       .  A
N1648      O1652   1.262       .  A
N1648      O1651   1.262       .  A
C1653      C1654   1.402       .  A
C1653      C1658   1.401       .  A
C1653      H1660   1.084       .  S
C1654      C1655   1.407       .  A
C1655      C1656   1.391       .  A
C1655      N1662   1.429       .  S
C1656      C1657   1.407       .  A
C1656      H1661   1.083       .  S
C1657      C1658   1.418       .  A
C1658      N1659   1.429       .  S
N1659      O1663   1.262       .  A
N1659      O1664   1.262       .  A
N1662      O1666   1.262       .  A
N1662      O1665   1.261       .  A
C1667      C1668   1.403       .  A
C1667      C1672   1.402       .  A
C1667      H1674   1.084       .  S
C1668      C1669   1.410       .  A
C1669      C1670   1.396       .  A
C1669      N1676   1.428       .  S
C1670      C1671   1.406       .  A
C1670      H1675   1.082       .  S
C1671      C1672   1.420       .  A
C1672      N1673   1.430       .  S
N1673      O1677   1.262       .  A
N1673      O1678   1.262       .  A
N1676      O1680   1.262       .  A
N1676      O1679   1.262       .  A
C1681      C1682   1.405       .  A
C1681      C1686   1.399       .  A
C1681      H1688   1.082       .  S
C1682      C1683   1.418       .  A
C1683      C1684   1.394       .  A
C1683      N1690   1.429       .  S
C1684      C1685   1.401       .  A
C1684      H1689   1.083       .  S
C1685      C1686   1.415       .  A
C1686      N1687   1.429       .  S
N1687      O1691   1.261       .  A
N1687      O1692   1.262       .  A
N1690      O1694   1.262       .  A
N1690      O1693   1.262       .  A
C1695      C1696   1.404       .  A
C1695      C1700   1.394       .  A
C1695      H1702   1.083       .  S
C1696      C1697   1.416       .  A
C1697      C1698   1.406       .  A
C1697      N1704   1.429       .  S
C1698      C1699   1.404       .  A
C1698      H1703   1.084       .  S
C1699      C1700   1.408       .  A
C1700      N1701   1.429       .  S
N1701      O1705   1.262       .  A
N1701      O1706   1.262       .  A
N1704      O1708   1.262       .  A
N1704      O1707   1.262       .  A
C1709      C1710   1.399       .  A
C1709      C1714   1.400       .  A
C1709      H1716   1.084       .  S
C1710      C1711   1.410       .  A
C1711      C1712   1.404       .  A
C1711      N1718   1.428       .  S
C1712      C1713   1.406       .  A
C1712      H1717   1.084       .  S
C1713      C1714   1.418       .  A
C1714      N1715   1.429       .  S
N1715      O1719   1.262       .  A
N1715      O1720   1.262       .  A
N1718      O1722   1.262   1_655  A
N1718      O1721   1.262       .  A
C1723      C1724   1.404       .  A
C1723      C1728   1.405       .  A
C1723      H1730   1.084       .  S
C1724      C1725   1.406       .  A
C1725      C1726   1.388       .  A
C1725      N1732   1.430       .  S
C1726      C1727   1.410       .  A
C1726      H1731   1.083       .  S
C1727      C1728   1.414       .  A
C1728      N1729   1.427   1_455  S
N1729      O1733   1.262       .  A
N1729      O1734   1.262   1_655  A
N1732      O1736   1.261       .  A
N1732      O1735   1.262       .  A
C1737      C1738   1.402       .  A
C1737      C1742   1.399       .  A
C1737      H1744   1.084       .  S
C1738      C1739   1.418       .  A
C1739      C1740   1.406       .  A
C1739      N1746   1.427       .  S
C1740      C1741   1.399       .  A
C1740      H1745   1.084       .  S
C1741      C1742   1.413       .  A
C1742      N1743   1.429       .  S
N1743      O1747   1.262       .  A
N1743      O1748   1.262       .  A
N1746      O1750   1.261       .  A
N1746      O1749   1.262       .  A
C1751      C1752   1.404       .  A
C1751      C1756   1.399       .  A
C1751      H1758   1.084       .  S
C1752      C1753   1.419       .  A
C1753      C1754   1.403       .  A
C1753      N1760   1.429       .  S
C1754      C1755   1.403       .  A
C1754      H1759   1.084       .  S
C1755      C1756   1.416       .  A
C1756      N1757   1.429       .  S
N1757      O1761   1.262       .  A
N1757      O1762   1.262       .  A
N1760      O1764   1.261       .  A
N1760      O1763   1.262       .  A
C1765      C1766   1.408       .  A
C1765      C1770   1.397       .  A
C1765      H1772   1.084       .  S
C1766      C1767   1.409       .  A
C1767      C1768   1.397       .  A
C1767      N1774   1.426       .  S
C1768      C1769   1.404       .  A
C1768      H1773   1.084       .  S
C1769      C1770   1.410       .  A
C1770      N1771   1.429       .  S
N1771      O1775   1.262       .  A
N1771      O1776   1.262       .  A
N1774      O1778   1.262       .  A
N1774      O1777   1.261       .  A
C1779      C1780   1.395       .  A
C1779      C1784   1.389       .  A
C1779      H1786   1.085       .  S
C1780      C1781   1.408       .  A
C1781      C1782   1.401       .  A
C1781      N1788   1.428       .  S
C1782      C1783   1.407       .  A
C1782      H1787   1.084       .  S
C1783      C1784   1.419       .  A
C1784      N1785   1.430       .  S
N1785      O1789   1.262       .  A
N1785      O1790   1.262       .  A
N1788      O1792   1.261       .  A
N1788      O1791   1.262       .  A
C1793      C1794   1.404       .  A
C1794      C1795   1.421       .  A
C1795      C1796   1.392       .  A
C1795      N1802   1.430       .  S
C1796      C1797   1.396       .  A
C1796      H1801   1.085       .  S
C1798      N1799   1.428       .  S
N1799      O1803   1.262       .  A
N1802      O1806   1.261       .  A
C1807      C1808   1.403       .  A
C1807      C1812   1.400       .  A
C1807      H1814   1.084       .  S
C1808      C1809   1.412       .  A
C1809      C1810   1.398       .  A
C1809      N1816   1.429       .  S
C1810      C1811   1.400       .  A
C1810      H1815   1.085       .  S
C1811      C1812   1.408       .  A
C1812      N1813   1.428       .  S
N1813      O1817   1.262       .  A
N1813      O1818   1.262       .  A
N1816      O1820   1.262       .  A
N1816      O1819   1.262       .  A
C1821      C1822   1.406       .  A
C1821      C1826   1.407       .  A
C1821      H1828   1.084       .  S
C1822      C1823   1.408       .  A
C1823      C1824   1.396       .  A
C1823      N1830   1.429       .  S
C1824      C1825   1.408       .  A
C1824      H1829   1.084       .  S
C1825      C1826   1.415       .  A
C1826      N1827   1.428       .  S
N1827      O1831   1.262       .  A
N1827      O1832   1.262       .  A
N1830      O1834   1.262       .  A
N1830      O1833   1.262       .  A
C1835      C1836   1.401       .  A
C1835      C1840   1.397       .  A
C1835      H1842   1.084       .  S
C1836      C1837   1.412       .  A
C1837      C1838   1.401       .  A
C1837      N1844   1.429       .  S
C1838      C1839   1.403       .  A
C1838      H1843   1.084       .  S
C1839      C1840   1.410       .  A
C1840      N1841   1.428       .  S
N1841      O1845   1.262       .  A
N1841      O1846   1.262       .  A
N1844      O1848   1.262       .  A
N1844      O1847   1.262       .  A
C1849      C1850   1.398       .  A
C1849      C1854   1.405       .  A
C1849      H1856   1.084       .  S
C1850      C1851   1.410       .  A
C1851      C1852   1.400       .  A
C1851      N1858   1.429       .  S
C1852      C1853   1.407       .  A
C1852      H1857   1.083       .  S
C1853      C1854   1.419       .  A
C1854      N1855   1.426       .  S
N1855      O1859   1.262       .  A
N1855      O1860   1.262       .  A
N1858      O1862   1.262       .  A
N1858      O1861   1.262   1_455  A
C1863      C1864   1.396   1_455  A
C1863      C1868   1.398       .  A
C1863      H1870   1.084       .  S
C1864      C1865   1.407       .  A
C1865      C1866   1.405       .  A
C1865      N1872   1.430       .  S
C1866      C1867   1.411       .  A
C1866      H1871   1.083       .  S
C1867      C1868   1.422   1_655  A
C1868      N1869   1.429       .  S
N1869      O1873   1.262       .  A
N1869      O1874   1.262       .  A
N1872      O1876   1.262       .  A
N1872      O1875   1.262       .  A
C1877      C1878   1.413   1_655  A
C1877      C1882   1.406       .  A
C1877      H1884   1.083       .  S
C1878      C1879   1.411       .  A
C1879      C1880   1.394       .  A
C1879      N1886   1.423       .  S
C1880      C1881   1.405       .  A
C1880      H1885   1.082       .  S
C1881      C1882   1.414   1_455  A
C1882      N1883   1.429       .  S
N1883      O1887   1.262       .  A
N1883      O1888   1.262       .  A
N1886      O1890   1.262       .  A
N1886      O1889   1.262       .  A
C1891      C1892   1.403       .  A
C1891      C1896   1.401       .  A
C1891      H1898   1.084       .  S
C1892      C1893   1.416       .  A
C1893      C1894   1.396       .  A
C1893      N1900   1.429       .  S
C1894      C1895   1.399       .  A
C1894      H1899   1.083       .  S
C1895      C1896   1.412       .  A
C1896      N1897   1.428       .  S
N1897      O1901   1.262       .  A
N1897      O1902   1.262       .  A
N1900      O1904   1.262       .  A
N1900      O1903   1.262       .  A
C1905      C1906   1.406       .  A
C1905      C1910   1.397       .  A
C1905      H1912   1.083       .  S
C1906      C1907   1.420       .  A
C1907      C1908   1.397       .  A
C1907      N1914   1.429       .  S
C1908      C1909   1.399       .  A
C1908      H1913   1.084       .  S
C1909      C1910   1.412       .  A
C1910      N1911   1.430       .  S
N1911      O1915   1.262       .  A
N1911      O1916   1.262       .  A
N1914      O1918   1.262       .  A
N1914      O1917   1.262       .  A
C1919      C1920   1.408       .  A
C1919      C1924   1.401       .  A
C1919      H1926   1.083       .  S
C1920      C1921   1.418       .  A
C1921      C1922   1.399       .  A
C1921      N1928   1.428       .  S
C1922      C1923   1.403       .  A
C1922      H1927   1.084       .  S
C1923      C1924   1.414       .  A
C1924      N1925   1.429       .  S
N1925      O1929   1.262       .  A
N1925      O1930   1.262       .  A
N1928      O1932   1.262       .  A
N1928      O1931   1.262       .  A
C1933      C1934   1.406       .  A
C1933      C1938   1.400       .  A
C1933      H1940   1.083       .  S
C1934      C1935   1.413       .  A
C1935      C1936   1.401       .  A
C1935      N1942   1.426       .  S
C1936      C1937   1.405       .  A
C1936      H1941   1.084       .  S
C1937      C1938   1.412       .  A
C1938      N1939   1.428       .  S
N1939      O1943   1.262       .  A
N1939      O1944   1.262       .  A
N1942      O1946   1.262       .  A
N1942      O1945   1.262       .  A
C1947      C1948   1.410       .  A
C1947      C1952   1.405       .  A
C1947      H1954   1.084       .  S
C1948      C1949   1.412       .  A
C1949      C1950   1.400       .  A
C1949      N1956   1.426       .  S
C1950      C1951   1.399       .  A
C1950      H1955   1.084       .  S
C1951      C1952   1.407       .  A
C1952      N1953   1.430       .  S
N1953      O1957   1.262       .  A
N1953      O1958   1.262       .  A
N1956      O1960   1.262       .  A
N1956      O1959   1.261       .  A
C1961      C1962   1.396       .  A
C1961      C1966   1.396       .  A
C1962      C1963   1.414       .  A
C1963      C1964   1.404       .  A
C1963      N1970   1.429       .  S
C1964      C1965   1.404       .  A
C1964      H1969   1.084       .  S
C1965      C1966   1.420       .  A
N1967      O1971   1.262   1_545  A
N1967      O1972   1.262       .  A
N1970      O1974   1.262       .  A
N1970      O1973   1.261       .  A
C1975      C1976   1.405       .  A
C1975      C1980   1.400       .  A
C1976      C1977   1.419       .  A
C1977      C1978   1.397       .  A
C1977      N1984   1.424       .  S
C1978      C1979   1.399       .  A
C1978      H1983   1.084       .  S
C1979      C1980   1.417       .  A
N1981      O1985   1.262       .  A
N1981      O1986   1.262       .  A
N1984      O1988   1.262       .  A
N1984      O1987   1.262       .  A
C1989      C1994   1.406       .  A
C1989      H1996   1.084       .  S
C1990      C1991   1.416   1_565  A
C1991      C1992   1.403       .  A
C1991      N1998   1.428       .  S
C1992      H1997   1.083       .  S
C1993      C1994   1.413       .  A
C1994      N1995   1.428       .  S
N1995      O1999   1.262       .  A
N1995      O2000   1.262       .  A
N1998      O2002   1.262       .  A
N1998      O2001   1.262       .  A
C2003      C2004   1.391       .  A
C2003      C2008   1.395       .  A
C2003      H2010   1.085       .  S
C2004      C2005   1.403       .  A
C2005      C2006   1.402       .  A
C2005      N2012   1.430       .  S
C2006      C2007   1.409       .  A
C2006      H2011   1.084       .  S
C2007      C2008   1.415       .  A
C2008      N2009   1.425       .  S
N2009      O2013   1.261       .  A
N2009      O2014   1.262       .  A
N2012      O2016   1.262       .  A
N2012      O2015   1.262       .  A
C2017      C2018   1.402       .  A
C2017      C2022   1.403       .  A
C2017      H2024   1.084       .  S
C2018      C2019   1.409       .  A
C2019      C2020   1.399       .  A
C2019      N2026   1.430       .  S
C2020      C2021   1.410       .  A
C2020      H2025   1.083       .  S
C2021      C2022   1.417       .  A
C2022      N2023   1.428   1_655  S
N2023      O2027   1.262   1_455  A
N2023      O2028   1.262       .  A
N2026      O2030   1.262       .  A
N2026      O2029   1.262       .  A
C2031      C2032   1.409       .  A
C2031      C2036   1.399       .  A
C2031      H2038   1.084       .  S
C2032      C2033   1.415       .  A
C2033      C2034   1.394       .  A
C2033      N2040   1.429       .  S
C2034      C2035   1.399       .  A
C2034      H2039   1.085       .  S
C2035      C2036   1.406       .  A
C2036      N2037   1.428       .  S
N2037      O2041   1.262       .  A
N2037      O2042   1.262       .  A
N2040      O2044   1.262       .  A
N2040      O2043   1.262       .  A
C2045      C2046   1.401       .  A
C2045      C2050   1.404       .  A
C2045      H2052   1.084       .  S
C2046      C2047   1.410       .  A
C2047      C2048   1.392       .  A
C2047      N2054   1.428       .  S
C2048      C2049   1.404       .  A
C2048      H2053   1.083       .  S
C2049      C2050   1.419       .  A
C2050      N2051   1.427       .  S
N2051      O2055   1.261       .  A
N2051      O2056   1.262       .  A
N2054      O2058   1.262       .  A
N2054      O2057   1.262       .  A
C2059      C2060   1.406       .  A
C2059      C2064   1.402       .  A
C2059      H2066   1.084       .  S
C2060      C2061   1.410       .  A
C2061      C2062   1.399       .  A
C2061      N2068   1.429       .  S
C2062      C2063   1.409       .  A
C2062      H2067   1.081       .  S
C2063      C2064   1.417       .  A
C2064      N2065   1.429       .  S
N2065      O2069   1.262       .  A
N2065      O2070   1.262       .  A
N2068      O2072   1.262       .  A
N2068      O2071   1.262       .  A
C2073      C2074   1.408       .  A
C2073      C2078   1.397       .  A
C2073      H2080   1.083       .  S
C2074      C2075   1.417       .  A
C2075      C2076   1.399       .  A
C2075      N2082   1.428       .  S
C2076      C2077   1.398       .  A
C2076      H2081   1.085       .  S
C2077      C2078   1.404       .  A
C2078      N2079   1.429   1_655  S
N2079      O2083   1.262       .  A
N2079      O2084   1.262       .  A
N2082      O2086   1.262       .  A
N2082      O2085   1.262       .  A
C2087      C2088   1.406       .  A
C2087      C2092   1.401       .  A
C2087      H2094   1.083       .  S
C2088      C2089   1.421       .  A
C2089      C2090   1.401       .  A
C2089      N2096   1.429       .  S
C2090      C2091   1.403       .  A
C2090      H2095   1.084       .  S
C2091      C2092   1.414       .  A
C2092      N2093   1.429       .  S
N2093      O2097   1.262       .  A
N2093      O2098   1.262       .  A
N2096      O2100   1.262       .  A
N2096      O2099   1.262       .  A
C2101      C2102   1.401       .  A
C2101      C2106   1.399       .  A
C2101      H2108   1.084       .  S
C2102      C2103   1.414       .  A
C2103      C2104   1.401       .  A
C2103      N2110   1.429       .  S
C2104      C2105   1.403       .  A
C2104      H2109   1.083       .  S
C2105      C2106   1.418       .  A
C2106      N2107   1.429       .  S
N2107      O2111   1.262       .  A
N2107      O2112   1.262       .  A
N2110      O2114   1.261       .  A
N2110      O2113   1.262       .  A
C2115      C2116   1.404       .  A
C2115      C2120   1.399       .  A
C2115      H2122   1.084       .  S
C2116      C2117   1.409       .  A
C2117      C2118   1.390       .  A
C2117      N2124   1.429       .  S
C2118      C2119   1.408       .  A
C2118      H2123   1.083       .  S
C2119      C2120   1.414       .  A
C2120      N2121   1.428       .  S
N2121      O2125   1.262       .  A
N2121      O2126   1.262       .  A
N2124      O2128   1.261       .  A
N2124      O2127   1.262       .  A
C2129      C2130   1.403       .  A
C2129      C2134   1.397       .  A
C2129      H2136   1.083       .  S
C2130      C2131   1.421       .  A
C2131      C2132   1.406       .  A
C2131      N2138   1.429       .  S
C2132      C2133   1.399       .  A
C2132      H2137   1.084       .  S
C2133      C2134   1.409       .  A
C2134      N2135   1.428       .  S
N2135      O2139   1.262       .  A
N2135      O2140   1.262       .  A
N2138      O2142   1.262       .  A
N2138      O2141   1.262       .  A
C2143      C2144   1.407       .  A
C2143      C2148   1.402       .  A
C2143      H2150   1.084       .  S
C2144      C2145   1.416       .  A
C2145      C2146   1.400       .  A
C2145      N2152   1.428       .  S
C2146      C2147   1.402       .  A
C2146      H2151   1.084       .  S
C2147      C2148   1.414       .  A
C2148      N2149   1.429       .  S
N2149      O2153   1.262       .  A
N2149      O2154   1.262       .  A
N2152      O2156   1.262       .  A
N2152      O2155   1.262       .  A
C2157      C2158   1.411       .  A
C2157      C2162   1.394       .  A
C2157      H2164   1.081       .  S
C2158      C2159   1.418       .  A
C2159      C2160   1.401       .  A
C2159      N2166   1.425       .  S
C2160      C2161   1.397       .  A
C2160      H2165   1.085       .  S
C2161      C2162   1.400       .  A
C2162      N2163   1.429       .  S
N2163      O2167   1.262       .  A
N2163      O2168   1.262       .  A
N2166      O2170   1.262       .  A
N2166      O2169   1.262       .  A
C2171      C2172   1.407       .  A
C2171      C2176   1.401       .  A
C2171      H2178   1.082       .  S
C2172      C2173   1.417       .  A
C2173      C2174   1.406       .  A
C2173      N2180   1.429       .  S
C2174      C2175   1.408       .  A
C2174      H2179   1.084       .  S
C2175      C2176   1.410       .  A
C2176      N2177   1.426       .  S
N2177      O2181   1.261       .  A
N2177      O2182   1.262       .  A
N2180      O2184   1.262       .  A
N2180      O2183   1.262       .  A
C2185      C2186   1.401       .  A
C2185      C2190   1.405       .  A
C2185      H2192   1.084       .  S
C2186      C2187   1.413   1_455  A
C2187      C2188   1.396       .  A
C2187      N2194   1.428       .  S
C2188      C2189   1.404   1_655  A
C2188      H2193   1.083       .  S
C2189      C2190   1.423       .  A
C2190      N2191   1.428       .  S
N2191      O2195   1.262       .  A
N2191      O2196   1.262       .  A
N2194      O2198   1.262       .  A
N2194      O2197   1.262       .  A
C2199      C2200   1.405       .  A
C2199      C2204   1.392       .  A
C2199      H2206   1.084       .  S
C2200      C2201   1.415       .  A
C2201      C2202   1.403       .  A
C2201      N2208   1.426       .  S
C2202      C2203   1.400       .  A
C2202      H2207   1.084       .  S
C2203      C2204   1.408       .  A
C2204      N2205   1.429       .  S
N2205      O2209   1.262       .  A
N2205      O2210   1.262       .  A
N2208      O2212   1.262       .  A
N2208      O2211   1.262       .  A
C2213      C2214   1.401       .  A
C2213      C2218   1.397       .  A
C2213      H2220   1.084       .  S
C2214      C2215   1.409       .  A
C2215      C2216   1.399       .  A
C2215      N2222   1.427       .  S
C2216      C2217   1.401       .  A
C2216      H2221   1.084       .  S
C2217      C2218   1.413       .  A
C2218      N2219   1.430       .  S
N2219      O2223   1.262       .  A
N2219      O2224   1.262       .  A
N2222      O2226   1.261       .  A
N2222      O2225   1.261       .  A
C2227      C2228   1.395       .  A
C2227      C2232   1.389       .  A
C2227      H2234   1.085       .  S
C2228      C2229   1.401       .  A
C2229      C2230   1.402       .  A
C2229      N2236   1.430       .  S
C2230      C2231   1.414       .  A
C2230      H2235   1.083       .  S
C2231      C2232   1.415       .  A
C2232      N2233   1.428       .  S
N2233      O2237   1.262       .  A
N2233      O2238   1.262       .  A
N2236      O2240   1.262       .  A
N2236      O2239   1.262       .  A
C2241      C2242   1.405       .  A
C2241      C2246   1.401       .  A
C2241      H2248   1.084       .  S
C2242      C2243   1.410       .  A
C2243      C2244   1.396       .  A
C2243      N2250   1.429       .  S
C2244      C2245   1.409       .  A
C2244      H2249   1.082       .  S
C2245      C2246   1.414       .  A
C2246      N2247   1.425       .  S
N2247      O2251   1.262       .  A
N2247      O2252   1.262       .  A
N2250      O2254   1.262       .  A
N2250      O2253   1.262       .  A
C2255      C2256   1.406   1_565  A
C2255      C2260   1.395       .  A
C2255      H2262   1.084       .  S
C2256      C2257   1.410       .  A
C2257      C2258   1.402       .  A
C2258      C2259   1.406       .  A
C2259      C2260   1.411   1_545  A
C2260      N2261   1.430       .  S
N2261      O2265   1.262       .  A
N2261      O2266   1.262       .  A
N2264      O2267   1.262       .  A
