geometry optimzed in LAMMPS
_audit_creation_date              2020-11-30 
_audit_creation_method            'lammps2cif' 
_symmetry_space_group_name_H-M    'P1' 
_symmetry_Int_Tables_number       1 
_symmetry_cell_setting            triclinic 
loop_ 
_symmetry_equiv_pos_as_xyz 
  x,y,z 
_cell_length_a                    32.40767265 
_cell_length_b                    32.37894094022532 
_cell_length_c                    86.07843831254593 
_cell_angle_alpha                 89.76121940319354 
_cell_angle_beta                  89.97370872665876 
_cell_angle_gamma                 120.33846615669195 
loop_ 
_atom_site_label 
_atom_site_type_symbol 
_atom_site_fract_x 
_atom_site_fract_y 
_atom_site_fract_z 
_atom_site_charge 
C1          C  0.21059908  0.92847048  0.13661123     0.80800
N2          N  0.22428732  0.96765927  0.14570321    -0.77500
C3          C  0.22081091  0.00528164  0.14032258     0.83200
N4          N  0.20387969  0.00359729  0.12582727    -0.77500
C5          C  0.19003314  0.96488908  0.11663591     0.83300
N6          N  0.19311959  0.92703622  0.12208137    -0.79200
C7          C  0.31216507  0.34832408  0.20593650     0.80800
N8          N  0.29901088  0.30889259  0.19703917    -0.77500
C9          C  0.30443703  0.27244288  0.20244419     0.83200
N10         N  0.32286522  0.27549005  0.21678355    -0.77500
C11         C  0.33671877  0.31466972  0.22571749     0.83300
N12         N  0.33146609  0.35133830  0.22028250    -0.79200
C13         C  0.93097821  0.22442823  0.11958004     0.80800
N14         N  0.89514939  0.20001880  0.12990504    -0.77500
C15         C  0.89606347  0.21778144  0.14414796     0.83200
N16         N  0.93395553  0.26061878  0.14828483    -0.77500
C17         C  0.97051639  0.28566545  0.13806637     0.83300
N18         N  0.96892993  0.26760975  0.12361333    -0.79200
C19         C  0.57695257  0.02751487  0.22659824     0.80800
N20         N  0.53897715  0.98766311  0.22063773    -0.77500
C21         C  0.54188359  0.97195541  0.20628815     0.83200
N22         N  0.58283199  0.99653321  0.19785812    -0.77500
C23         C  0.62089470  0.03648295  0.20375036     0.83300
N24         N  0.61782343  0.05168808  0.21813772    -0.79200
C25         C  0.84888064  0.53644657  0.22674779     0.80800
N26         N  0.82239497  0.54914975  0.21787545    -0.77500
C27         C  0.83552994  0.56463240  0.20307287     0.83200
N28         N  0.87602039  0.56817844  0.19713976    -0.77500
C29         C  0.90313352  0.55593242  0.20589772     0.83300
N30         N  0.88928496  0.53967917  0.22071657    -0.79200
C31         C  0.65181828  0.69756704  0.12201909     0.80800
N32         N  0.60995392  0.69403051  0.12664847    -0.77500
C33         C  0.59089527  0.67462422  0.14081315     0.83200
N34         N  0.61371743  0.65852572  0.15020163    -0.77500
C35         C  0.65525866  0.66179383  0.14549610     0.83300
N36         N  0.67404768  0.68152742  0.13150689    -0.79200
C37         C  0.20351630  0.62064720  0.17106561     0.02800
C38         C  0.24012225  0.66934705  0.17063746     0.02800
C39         C  0.28847151  0.68112193  0.17175144     0.02800
C40         C  0.30024695  0.64462897  0.17161776     0.02800
C41         C  0.26359456  0.59618142  0.17216158     0.02800
C42         C  0.21555593  0.58434487  0.17091785     0.02800
O43         O  0.63057910  0.28677002  0.37238262    -0.78000
C44         C  0.58602258  0.38629400  0.36455421     0.83100
O45         O  0.47374476  0.18983174  0.35047102    -0.79100
O46         O  0.53408409  0.33797868  0.31757197    -0.80500
O47         O  0.68653338  0.33878703  0.32091831    -0.80300
O48         O  0.67224915  0.27479516  0.35417724    -0.79000
Zn49       Zn  0.57549155  0.28776966  0.36272315     1.55700
O50         O  0.65304200  0.38430462  0.31921036    -0.80400
Cd51       Cd  0.63735978  0.28074090  0.33447948     1.59700
Cd52       Cd  0.51967453  0.23199878  0.33232162     1.59600
O53         O  0.61411028  0.22173340  0.32024034    -0.80400
O54         O  0.58072613  0.28749383  0.34044569    -1.90900
Cd55       Cd  0.59054970  0.35008944  0.33221963     1.59900
O56         O  0.53498801  0.18946911  0.31796457    -0.80300
O57         O  0.59523922  0.39564708  0.35014461    -0.79000
C58         C  0.47928667  0.19546530  0.36515294     0.83600
C59         C  0.66470243  0.28041428  0.36835943     0.83200
O60         O  0.57597111  0.34615854  0.37037593    -0.77900
C61         C  0.68620983  0.37565144  0.31575346     0.84000
O62         O  0.51614454  0.23077425  0.37100646    -0.78000
C63         C  0.57397739  0.19088600  0.31445983     0.84200
C64         C  0.49622063  0.29988584  0.31339592     0.84500
O65         O  0.48586176  0.25849835  0.31838138    -0.80400
C66         C  0.51054867  0.88302554  0.56148714     0.80800
N67         N  0.55213540  0.88739876  0.55609973    -0.77500
C68         C  0.56881999  0.90628724  0.54165786     0.83200
N69         N  0.54339669  0.92021441  0.53265034    -0.77500
C70         C  0.50171950  0.91539893  0.53797734     0.83300
N71         N  0.48582345  0.89704128  0.55233387    -0.79200
C72         C  0.31220707  0.04094983  0.45444220     0.80800
N73         N  0.27115333  0.03687070  0.46028641    -0.77500
C74         C  0.25595325  0.01868995  0.47490385     0.83200
N75         N  0.28239027  0.00535524  0.48360212    -0.77500
C76         C  0.32362539  0.01006774  0.47786425     0.83300
N77         N  0.33796156  0.02744262  0.46330024    -0.79200
C78         C  0.24876940  0.34913821  0.56256964     0.80800
N79         N  0.28715107  0.37238337  0.55306245    -0.77500
C80         C  0.28854563  0.35467734  0.53901693     0.83200
N81         N  0.25055692  0.31282695  0.53427024    -0.77500
C82         C  0.21162669  0.28869398  0.54370281     0.83300
N83         N  0.21074109  0.30691460  0.55791141    -0.79200
C84         C  0.59168109  0.55448869  0.45151131     0.80800
N85         N  0.55428454  0.52781258  0.46109475    -0.77500
C86         C  0.55374233  0.54135935  0.47586726     0.83200
N87         N  0.59131523  0.58276598  0.48119751    -0.77500
C88         C  0.62917281  0.61038690  0.47168392     0.83300
N89         N  0.62942676  0.59597779  0.45679964    -0.79200
C90         C  0.99101682  0.62681109  0.56204834     0.80800
N91         N  0.98242184  0.66220977  0.55764214    -0.77500
C92         C  0.95757997  0.65745485  0.54428639     0.83200
N93         N  0.94092684  0.61701462  0.53560471    -0.77500
C94         C  0.94880683  0.58147392  0.54022934     0.83300
N95         N  0.97412141  0.58697514  0.55327844    -0.79200
C96         C  0.85682688  0.23851887  0.47500396     0.80800
N97         N  0.83693611  0.23598756  0.46075731    -0.77500
C98         C  0.82731594  0.27065685  0.45631036     0.83200
N99         N  0.83761504  0.30727208  0.46604982    -0.77500
C100        C  0.85766823  0.31045241  0.48005906     0.83300
N101        N  0.86707985  0.27584663  0.48460687    -0.79200
C102        C  0.86301378  0.94259388  0.51045845     0.02800
C103        C  0.90193353  0.99014615  0.51076852     0.02800
C104        C  0.94919049  0.99871983  0.51224533     0.02800
C105        C  0.95808472  0.96014388  0.51218198     0.02800
C106        C  0.91885462  0.91257825  0.51227394     0.02800
C107        C  0.87181552  0.90393770  0.51033618     0.02800
C108        C  0.53495266  0.57708379  0.80585316     0.80800
N109        N  0.54819931  0.61582066  0.81506033    -0.77500
C110        C  0.54646212  0.65430803  0.80951736     0.83200
N111        N  0.53170681  0.65390866  0.79475769    -0.77500
C112        C  0.51802895  0.61526480  0.78554353     0.83300
N113        N  0.51942271  0.57676540  0.79114217    -0.79200
C114        C  0.64969170  0.00597113  0.87247015     0.80800
N115        N  0.63394760  0.96639859  0.86344496    -0.77500
C116        C  0.63698025  0.92830329  0.86863633     0.83200
N117        N  0.65553757  0.92993662  0.88287662    -0.77500
C118        C  0.67179822  0.96935758  0.89191278     0.83300
N119        N  0.66896535  0.00747110  0.88667018    -0.79200
C120        C  0.25672063  0.89002604  0.78555210     0.80800
N121        N  0.29530958  0.93007589  0.79124550    -0.77500
C122        C  0.29234132  0.94801296  0.80524264     0.83200
N123        N  0.25088699  0.92550497  0.81353236    -0.77500
C124        C  0.21235110  0.88574940  0.80782539     0.83300
N125        N  0.21550218  0.86840210  0.79385219    -0.79200
C126        C  0.89807150  0.69397191  0.89216756     0.80800
N127        N  0.93628204  0.72149625  0.88292191    -0.77500
C128        C  0.93798138  0.70845495  0.86809860     0.83200
N129        N  0.90125209  0.66680170  0.86253468    -0.77500
C130        C  0.86290884  0.63865903  0.87177885     0.83300
N131        N  0.86130449  0.65256977  0.88656087    -0.79200
C132        C  0.23654423  0.21568505  0.87238802     0.80800
N133        N  0.22213455  0.19820705  0.88703326    -0.77500
C134        C  0.18308123  0.19677218  0.89336085     0.83200
N135        N  0.15824270  0.21246632  0.88498736    -0.77500
C136        C  0.17167013  0.22906812  0.87028023     0.83300
N137        N  0.21107080  0.23087129  0.86400041    -0.79200
C138        C  0.92602160  0.33629620  0.80790828     0.80800
N139        N  0.94929926  0.31862038  0.81639673    -0.77500
C140        C  0.99002793  0.32163298  0.81083022     0.83200
N141        N  0.00712930  0.34215123  0.79677575    -0.77500
C142        C  0.98474800  0.36026677  0.78826621     0.83300
N143        N  0.94413940  0.35753965  0.79386472    -0.79200
C144        C  0.53609573  0.27571280  0.83922291     0.02800
C145        C  0.57286100  0.32414335  0.83990194     0.02800
C146        C  0.62106171  0.33577381  0.84097159     0.02800
C147        C  0.63306553  0.29953278  0.84008164     0.02800
C148        C  0.59621231  0.25098118  0.83995866     0.02800
C149        C  0.54783852  0.23923159  0.83886917     0.02800
O150        O  0.98120987  0.96102697  0.03684916    -0.78000
C151        C  0.91777038  0.04682945  0.03334379     0.83100
O152        O  0.81041968  0.85988648  0.02006533    -0.79100
O153        O  0.86722529  0.00355077  0.98593669    -0.80500
O154        O  0.01332791  0.00066454  0.98511071    -0.80300
O155        O  0.01055479  0.93994194  0.01699581    -0.79000
Zn156      Zn  0.91941376  0.95412161  0.02943508     1.55700
O157        O  0.98499673  0.05078772  0.98693380    -0.80400
Cd158      Cd  0.96888683  0.94373678  0.99931152     1.59700
Cd159      Cd  0.85256794  0.89758212  0.00064480     1.59600
O160        O  0.94206633  0.88315101  0.98588702    -0.80400
O161        O  0.91586414  0.95276719  0.00734556    -1.90900
Cd162      Cd  0.92373230  0.01575467  0.00040237     1.59900
O163        O  0.86270639  0.85038196  0.98670372    -0.80300
O164        O  0.92610226  0.05881390  0.01904731    -0.79000
C165        C  0.82470513  0.86205959  0.03403542     0.83600
C166        C  0.01176646  0.95166364  0.03115579     0.83200
O167        O  0.91277842  0.00748712  0.03826807    -0.77900
C168        C  0.01487938  0.03967876  0.98159690     0.84000
O169        O  0.86620250  0.89408665  0.03834252    -0.78000
C170        C  0.90024124  0.85091325  0.98185431     0.84200
C171        C  0.82978420  0.96549615  0.98150780     0.84500
O172        O  0.81917921  0.92398105  0.98642255    -0.80400
O173        O  0.25975829  0.56158627  0.64381975    -0.78000
C174        C  0.16402978  0.61924299  0.64763908     0.83100
O175        O  0.35728130  0.71739720  0.66418215    -0.79100
O176        O  0.21685552  0.67701659  0.69598372    -0.80500
O177        O  0.19425856  0.52132390  0.69672647    -0.80300
O178        O  0.24462468  0.51111833  0.66350305    -0.79000
Zn179      Zn  0.25646075  0.61726824  0.65210345     1.55700
O180        O  0.15302725  0.55951749  0.69502180    -0.80400
Cd181      Cd  0.25147304  0.55670210  0.68178381     1.59700
Cd182      Cd  0.31413886  0.67448384  0.68238626     1.59600
O183        O  0.31222082  0.57285729  0.69461700    -0.80400
O184        O  0.25447956  0.61708132  0.67436695    -1.90900
Cd185      Cd  0.19611725  0.61928329  0.68118638     1.59900
O186        O  0.35325645  0.65274779  0.69556220    -0.80300
O187        O  0.15772210  0.62405305  0.66203421    -0.79000
C188        C  0.34961449  0.71249988  0.64959762     0.83600
C189        C  0.25218561  0.52165674  0.64910104     0.83200
O190        O  0.19853224  0.61433167  0.64301420    -0.77900
C191        C  0.15907910  0.52635720  0.70061299     0.84000
O192        O  0.31268585  0.67688985  0.64390213    -0.78000
C193        C  0.34777739  0.61211347  0.69927100     0.84200
C194        C  0.25680777  0.71013051  0.70121126     0.84500
O195        O  0.29665051  0.71469958  0.69696576    -0.80400
C196        C  0.82209937  0.34175213  0.81560297     0.30300
C197        C  0.78682687  0.35391861  0.81281802    -0.36000
C198        C  0.74930137  0.33678973  0.82367757     0.16300
C199        C  0.74643108  0.30941413  0.83640555     0.22100
C200        C  0.78198524  0.29764972  0.83927896    -0.34100
C201        C  0.81958258  0.31480553  0.82841700     0.16200
O202        O  0.85956858  0.35280054  0.80670585    -0.26200
C203        C  0.88161392  0.33288706  0.81392907     0.06000
C204        C  0.85824488  0.30875025  0.82750391    -0.31000
O205        O  0.70635589  0.29417055  0.84437335    -0.22900
C206        C  0.68340201  0.31245115  0.83675620    -0.02900
C207        C  0.70858846  0.33923687  0.82378314    -0.17300
H208        H  0.78797893  0.37441284  0.80268738     0.20700
H209        H  0.77983632  0.27559239  0.84908306     0.19100
H210        H  0.86807011  0.28917130  0.83545143     0.19000
H211        H  0.69705721  0.35559814  0.81512902     0.14900
C212        C  0.05370026  0.40513646  0.75452321     0.30300
C213        C  0.09103614  0.41340733  0.74443421    -0.36000
C214        C  0.09906069  0.44451871  0.73199534     0.16300
C215        C  0.07248940  0.46644715  0.72964176     0.22100
C216        C  0.03448193  0.45758353  0.73966929    -0.34100
C217        C  0.02618631  0.42604324  0.75214347     0.16200
O218        O  0.04196204  0.37915987  0.76727859    -0.26200
C219        C  0.00607326  0.38280121  0.77322143     0.06000
C220        C  0.99439141  0.41142943  0.76427084    -0.31000
O221        O  0.08881317  0.49705903  0.71788379    -0.22900
C222        C  0.12594045  0.49415324  0.71261151    -0.02900
C223        C  0.13373727  0.46181911  0.72092462    -0.17300
H224        H  0.11312113  0.39762835  0.74639198     0.20700
H225        H  0.01375369  0.47500887  0.73810028     0.19100
H226        H  0.96770250  0.42129610  0.76663075     0.19000
H227        H  0.16239518  0.45414639  0.71953722     0.14900
C228        C  0.42254050  0.23589829  0.85510907     0.30300
C229        C  0.38781769  0.21584074  0.86679122    -0.36000
C230        C  0.34681343  0.21900514  0.86453751     0.16300
C231        C  0.34008108  0.24034378  0.85163836     0.22100
C232        C  0.37477943  0.25999544  0.83976565    -0.34100
C233        C  0.41614609  0.25691701  0.84206237     0.16200
O234        O  0.46455015  0.23904826  0.85543788    -0.26200
C235        C  0.48584270  0.26234074  0.84244274     0.06000
C236        C  0.45719914  0.27401570  0.83350825    -0.31000
O237        O  0.29978687  0.24122547  0.85242580    -0.22900
C238        C  0.28072398  0.22006104  0.86598894    -0.02900
C239        C  0.30844249  0.20543923  0.87395370    -0.17300
H240        H  0.39301329  0.19995249  0.87714743     0.20700
H241        H  0.37040737  0.27749990  0.82968497     0.19100
H242        H  0.46539400  0.29276386  0.82250557     0.19000
H243        H  0.30195398  0.18856240  0.88527696     0.14900
C244        C  0.11844398  0.26739469  0.84262773     0.30300
C245        C  0.11194325  0.28247667  0.82800624    -0.36000
C246        C  0.07280197  0.28954410  0.82663852     0.16300
C247        C  0.04201297  0.28234555  0.83878696     0.22100
C248        C  0.04872457  0.26755373  0.85346424    -0.34100
C249        C  0.08789870  0.26043277  0.85483280     0.16200
O250        O  0.15222093  0.25781534  0.84640891    -0.26200
C251        C  0.14324132  0.24453572  0.86124597     0.06000
C252        C  0.10370997  0.24561028  0.86710200    -0.31000
O253        O  0.00796233  0.29152086  0.83487859    -0.22900
C254        C  0.01723016  0.30489610  0.82003501    -0.02900
C255        C  0.05713963  0.30425838  0.81433962    -0.17300
H256        H  0.13566700  0.28816061  0.81834459     0.20700
H257        H  0.02501980  0.26187992  0.86312947     0.19100
H258        H  0.08852801  0.23627101  0.87867253     0.19000
H259        H  0.07278624  0.31396648  0.80283609     0.14900
C260        C  0.12761930  0.16375494  0.92962373     0.30300
C261        C  0.09572819  0.16100162  0.94107447    -0.36000
C262        C  0.08424413  0.12632657  0.95258366     0.16300
C263        C  0.10263896  0.09607886  0.95284874     0.22100
C264        C  0.13581826  0.09975643  0.94158081    -0.34100
C265        C  0.14751980  0.13479736  0.93001812     0.16200
O266        O  0.13886570  0.19009149  0.91696688    -0.26200
C267        C  0.16695882  0.17863198  0.90915751     0.06000
C268        C  0.17419878  0.14474600  0.91676260    -0.31000
O269        O  0.08225695  0.06253783  0.96363173    -0.22900
C270        C  0.05090404  0.07199508  0.97035884    -0.02900
C271        C  0.05101095  0.11154053  0.96404613    -0.17300
H272        H  0.07904603  0.18268561  0.94057384     0.20700
H273        H  0.14956025  0.07547344  0.94138083     0.19100
H274        H  0.19340480  0.12763431  0.91261987     0.19000
H275        H  0.02742816  0.12513067  0.96672572     0.14900
C276        C  0.76237755  0.52493406  0.86649629     0.30300
C277        C  0.72202883  0.48197581  0.87116833    -0.36000
C278        C  0.70023326  0.44709810  0.85965072     0.16300
C279        C  0.71636075  0.45414873  0.84448148     0.22100
C280        C  0.75677386  0.49719529  0.83980429    -0.34100
C281        C  0.77911034  0.53190301  0.85140368     0.16200
O282        O  0.78916283  0.56165727  0.87551317    -0.26200
C283        C  0.82373557  0.59259621  0.86613447     0.06000
C284        C  0.81937511  0.57598851  0.85098021    -0.31000
O285        O  0.69072167  0.41631312  0.83569922    -0.22900
C286        C  0.65806498  0.38472197  0.84543746    -0.02900
C287        C  0.66246401  0.40175480  0.86048733    -0.17300
H288        H  0.70908805  0.47583363  0.88303107     0.20700
H289        H  0.77032818  0.50288983  0.82802587     0.19100
H290        H  0.84275287  0.59356960  0.84116526     0.19000
H291        H  0.64084124  0.38320043  0.87055223     0.14900
C292        C  0.87268936  0.72405438  0.92871613     0.30300
C293        C  0.84459095  0.72892020  0.94025345    -0.36000
C294        C  0.86980602  0.76208165  0.95210419     0.16300
C295        C  0.91912536  0.78776728  0.95264255     0.22100
C296        C  0.94698857  0.78256034  0.94127238    -0.34100
C297        C  0.92195746  0.75041106  0.92934370     0.16200
O298        O  0.85715235  0.69876423  0.91579624    -0.26200
C299        C  0.89716599  0.70973264  0.90809927     0.06000
C300        C  0.93837461  0.74158878  0.91600874    -0.31000
O301        O  0.93562020  0.82000313  0.96371475    -0.22900
C302        C  0.89662001  0.81546442  0.97044428    -0.02900
C303        C  0.85443657  0.77968680  0.96378075    -0.17300
H304        H  0.80597068  0.71012464  0.93959607     0.20700
H305        H  0.98560813  0.80414014  0.94126060     0.19100
H306        H  0.97512995  0.75749602  0.91216563     0.19000
H307        H  0.81809749  0.77043515  0.96642443     0.14900
C308        C  0.44661946  0.12405958  0.83477430     0.30300
C309        C  0.40227625  0.08386545  0.83866603    -0.36000
C310        C  0.37968653  0.04992995  0.82682329     0.16300
C311        C  0.39953967  0.05498541  0.81224446     0.22100
C312        C  0.44358470  0.09510690  0.80836628    -0.34100
C313        C  0.46583464  0.12908967  0.82010283     0.16200
O314        O  0.47332788  0.16127528  0.84373394    -0.26200
C315        C  0.51015494  0.19008255  0.83463184     0.06000
C316        C  0.50675972  0.17218696  0.81977514    -0.31000
O317        O  0.37199752  0.01966700  0.80282634    -0.22900
C318        C  0.33371422  0.99159928  0.81141588    -0.02900
C319        C  0.33649150  0.00863927  0.82645205    -0.17300
H320        H  0.38612448  0.07977773  0.84999590     0.20700
H321        H  0.45903022  0.09995492  0.79688497     0.19100
H322        H  0.53059775  0.18924256  0.81002202     0.19000
H323        H  0.31023130  0.99313180  0.83567891     0.14900
C324        C  0.11918778  0.83940036  0.83523014     0.30300
C325        C  0.09689988  0.83524813  0.84960721    -0.36000
C326        C  0.05010543  0.79635087  0.85118059     0.16300
C327        C  0.02681054  0.76378580  0.83945019     0.22100
C328        C  0.04892790  0.76822310  0.82505602    -0.34100
C329        C  0.09564410  0.80696109  0.82349569     0.16200
O330        O  0.16330899  0.87204460  0.83131088    -0.26200
C331        C  0.16784417  0.86022777  0.81687244     0.06000
C332        C  0.12687267  0.82009568  0.81144531    -0.31000
O333        O  0.98407125  0.72890263  0.84367808    -0.22900
C334        C  0.97986319  0.73924357  0.85832167    -0.02900
C335        C  0.01974570  0.78098792  0.86355645    -0.17300
H336        H  0.11503317  0.86002646  0.85899347     0.20700
H337        H  0.03130057  0.74269713  0.81581498     0.19100
H338        H  0.12121909  0.80266503  0.80030506     0.19000
H339        H  0.02595748  0.79692368  0.87497249     0.14900
C340        C  0.23515035  0.81861520  0.75272155     0.30300
C341        C  0.20700617  0.78050085  0.74275257    -0.36000
C342        C  0.23164776  0.77109365  0.73123872     0.16300
C343        C  0.28072875  0.79716585  0.72964165     0.22100
C344        C  0.30895361  0.83575342  0.73956514    -0.34100
C345        C  0.28420085  0.84536192  0.75109340     0.16200
O346        O  0.21946465  0.83178861  0.76473135    -0.26200
C347        C  0.25877050  0.86778397  0.77090383     0.06000
C348        C  0.30026189  0.87803384  0.76287772    -0.31000
O349        O  0.29632859  0.78012209  0.71860339    -0.22900
C350        C  0.25660176  0.74294817  0.71300793    -0.02900
C351        C  0.21535790  0.73582289  0.72043054    -0.17300
H352        H  0.16860573  0.75894148  0.74411582     0.20700
H353        H  0.34752567  0.85610503  0.73859723     0.19100
H354        H  0.33686722  0.90426233  0.76569011     0.19000
H355        H  0.17884542  0.70752462  0.71855932     0.14900
C356        C  0.62831261  0.17317787  0.85748423     0.30300
C357        C  0.64502666  0.15619554  0.86952960    -0.36000
C358        C  0.64290700  0.11249779  0.86681137     0.16300
C359        C  0.62519423  0.08703439  0.85324099     0.22100
C360        C  0.60877871  0.10424001  0.84114480    -0.34100
C361        C  0.61135284  0.14820708  0.84381032     0.16200
O362        O  0.62606142  0.21266021  0.85769089    -0.26200
C363        C  0.60768723  0.21328757  0.84392637     0.06000
C364        C  0.59840580  0.17428636  0.83471507    -0.31000
O365        O  0.62560822  0.04648447  0.85333094    -0.22900
C366        C  0.64411002  0.04613439  0.86710925    -0.02900
C367        C  0.65560675  0.08637566  0.87597006    -0.17300
H368        H  0.65846552  0.17554749  0.88029453     0.20700
H369        H  0.59476639  0.08463090  0.83045490     0.19100
H370        H  0.58441633  0.16613285  0.82305270     0.19000
H371        H  0.67045926  0.09476107  0.88756017     0.14900
C372        C  0.75004226  0.94631902  0.95130502     0.30300
C373        C  0.71710351  0.91875700  0.93982813    -0.36000
C374        C  0.70953010  0.94417103  0.92808825     0.16300
C375        C  0.73209324  0.99346530  0.92768752     0.22100
C376        C  0.76497363  0.02123571  0.93930695    -0.34100
C377        C  0.77314799  0.99567129  0.95100974     0.16200
O378        O  0.76533458  0.92963070  0.96249837    -0.26200
C379        C  0.79888369  0.96859467  0.96956646     0.06000
C380        C  0.80524848  0.01087842  0.96296194    -0.31000
O381        O  0.72113963  0.00947279  0.91508215    -0.22900
C382        C  0.69156671  0.96973056  0.90735071    -0.02900
C383        C  0.68314579  0.92822633  0.91493619    -0.17300
H384        H  0.70002250  0.88014366  0.93970994     0.20700
H385        H  0.78413690  0.05994172  0.93892674     0.19100
H386        H  0.83145731  0.04733100  0.96596831     0.19000
H387        H  0.66156762  0.89157401  0.91110022     0.14900
C388        C  0.55148204  0.49239668  0.82625524     0.30300
C389        C  0.56336565  0.47274445  0.83889197    -0.36000
C390        C  0.56031750  0.42849483  0.83622378     0.16300
C391        C  0.54708555  0.40571370  0.82205420     0.22100
C392        C  0.53513327  0.42518430  0.80950187    -0.34100
C393        C  0.53772924  0.46898032  0.81219365     0.16200
O394        O  0.55209435  0.53348856  0.82600890    -0.26200
C395        C  0.53834972  0.53609118  0.81162443     0.06000
C396        C  0.52895098  0.49691695  0.80254684    -0.31000
O397        O  0.54843004  0.36584875  0.82182833    -0.22900
C398        C  0.56210234  0.36233362  0.83607027    -0.02900
C399        C  0.56984696  0.40026948  0.84561838    -0.17300
H400        H  0.57445309  0.49078014  0.84996898     0.20700
H401        H  0.52485778  0.40752079  0.79834556     0.19100
H402        H  0.51780618  0.49027681  0.79051789     0.19000
H403        H  0.58155305  0.40665711  0.85757432     0.14900
C404        C  0.60494532  0.81647542  0.85283376     0.30300
C405        C  0.59960208  0.77066908  0.85266148    -0.36000
C406        C  0.58313158  0.74533041  0.83871715     0.16300
C407        C  0.57248997  0.76377683  0.82585401     0.22100
C408        C  0.57755938  0.80948421  0.82605497    -0.34100
C409        C  0.59417066  0.83489739  0.83999329     0.16200
O410        O  0.62096431  0.84671214  0.86451888    -0.26200
C411        C  0.62040376  0.88504094  0.85915149     0.06000
C412        C  0.60395022  0.87972757  0.84394265    -0.31000
O413        O  0.55826749  0.73423418  0.81397794    -0.22900
C414        C  0.55983703  0.69636751  0.81927485    -0.02900
C415        C  0.57499827  0.70120262  0.83462002    -0.17300
H416        H  0.60819133  0.75603946  0.86265153     0.20700
H417        H  0.56955646  0.82435184  0.81599740     0.19100
H418        H  0.60042386  0.90535477  0.83679641     0.19000
H419        H  0.57954200  0.67602775  0.84167070     0.14900
C420        C  0.43612306  0.63525884  0.72676876     0.30300
C421        C  0.47119213  0.66376680  0.73759826    -0.36000
C422        C  0.48096681  0.63923420  0.74909488     0.16300
C423        C  0.45842571  0.58994961  0.74981476     0.22100
C424        C  0.42380534  0.56133578  0.73879014    -0.34100
C425        C  0.41351672  0.58594717  0.72736663     0.16200
O426        O  0.41758645  0.65078286  0.71625601    -0.26200
C427        C  0.38260864  0.61102007  0.70996512     0.06000
C428        C  0.37864496  0.56952488  0.71632483    -0.31000
O429        O  0.47004436  0.57468976  0.76241197    -0.22900
C430        C  0.50008906  0.61480551  0.76983920    -0.02900
C431        C  0.50835904  0.65595668  0.76203834    -0.17300
H432        H  0.48771136  0.70233437  0.73759412     0.20700
H433        H  0.40442817  0.52267582  0.73956476     0.19100
H434        H  0.35180218  0.53276158  0.71395469     0.19000
H435        H  0.52951934  0.69274481  0.76578798     0.14900
C436        C  0.87753089  0.07177975  0.49182880     0.30300
C437        C  0.86360156  0.08953513  0.47924103    -0.36000
C438        C  0.86650908  0.13376289  0.48146807     0.16300
C439        C  0.88214009  0.15901305  0.49515283     0.22100
C440        C  0.89605473  0.14114865  0.50781631    -0.34100
C441        C  0.89300657  0.09665799  0.50558243     0.16200
O442        O  0.87795768  0.03133430  0.49209950    -0.26200
C443        C  0.89388019  0.02987055  0.50621283     0.06000
C444        C  0.90351016  0.06951202  0.51519624    -0.31000
O445        O  0.88144031  0.19946843  0.49466215    -0.22900
C446        C  0.86513180  0.20001481  0.48047115    -0.02900
C447        C  0.85529114  0.15998555  0.47177827    -0.17300
H448        H  0.85129118  0.07012887  0.46843551     0.20700
H449        H  0.90829442  0.16049704  0.51863749     0.19100
H450        H  0.91611679  0.07725336  0.52703974     0.19000
H451        H  0.84135526  0.15122130  0.46008203     0.14900
C452        C  0.92406724  0.80705179  0.51703462     0.30300
C453        C  0.91979213  0.76307596  0.51294069    -0.36000
C454        C  0.93227889  0.74051570  0.52448891     0.16300
C455        C  0.94779725  0.75981938  0.53905870     0.22100
C456        C  0.95151508  0.80340027  0.54319886    -0.34100
C457        C  0.93918146  0.82593598  0.53167009     0.16200
O458        O  0.91526446  0.83488236  0.50801334    -0.26200
C459        C  0.92564421  0.87232849  0.51696985     0.06000
C460        C  0.93965253  0.86810802  0.53187396    -0.31000
O461        O  0.95861400  0.73333342  0.54794702    -0.22900
C462        C  0.94967172  0.69631028  0.53901769    -0.02900
C463        C  0.93313063  0.69885045  0.52429414    -0.17300
H464        H  0.90805468  0.74778015  0.50151513     0.20700
H465        H  0.96371197  0.81894825  0.55457103     0.19100
H466        H  0.94903988  0.89284774  0.54143833     0.19000
H467        H  0.92378988  0.67396643  0.51477340     0.14900
C468        C  0.89998856  0.48649865  0.51376316     0.30300
C469        C  0.87848349  0.46246037  0.49996250    -0.36000
C470        C  0.87565460  0.41815385  0.49790932     0.16300
C471        C  0.89242885  0.39850725  0.50869978     0.22100
C472        C  0.91340384  0.42227414  0.52257747    -0.34100
C473        C  0.91660794  0.46674539  0.52456751     0.16200
O474        O  0.90845342  0.52939810  0.51778617    -0.26200
C475        C  0.93086167  0.53710427  0.53132540     0.06000
C476        C  0.93675815  0.49929065  0.53610303    -0.31000
O477        O  0.88797418  0.35764725  0.50405508    -0.22900
C478        C  0.86810896  0.35113748  0.49010359    -0.02900
C479        C  0.85949071  0.38755432  0.48573197    -0.17300
H480        H  0.86593200  0.47774399  0.49126268     0.20700
H481        H  0.92736783  0.40771275  0.53104833     0.19100
H482        H  0.95421757  0.49659827  0.54646195     0.19000
H483        H  0.84449193  0.39144015  0.47496434     0.14900
C484        C  0.10259227  0.60971744  0.61330325     0.30300
C485        C  0.09065150  0.59684282  0.59778847    -0.36000
C486        C  0.06344643  0.61382873  0.59063456     0.16300
C487        C  0.04873214  0.64187947  0.59806201     0.22100
C488        C  0.06050435  0.65459265  0.61379546    -0.34100
C489        C  0.08777842  0.63715199  0.62109667     0.16200
O490        O  0.12949044  0.59899352  0.62183686    -0.26200
C491        C  0.13190370  0.61907101  0.63548543     0.06000
C492        C  0.10637255  0.64322794  0.63580499    -0.31000
O493        O  0.02249124  0.65265816  0.58890219    -0.22900
C494        C  0.02059199  0.63077052  0.57558399    -0.02900
C495        C  0.04555992  0.60637564  0.57609197    -0.17300
H496        H  0.10200193  0.57511747  0.59167190     0.20700
H497        H  0.04920189  0.67636148  0.61989683     0.19100
H498        H  0.10393961  0.66408731  0.64517147     0.19000
H499        H  0.04888391  0.58494748  0.56709466     0.14900
C500        C  0.71203938  0.71057716  0.49309317     0.30300
C501        C  0.73134994  0.73896801  0.50641181    -0.36000
C502        C  0.77240993  0.78401703  0.50409944     0.16300
C503        C  0.79288008  0.80004243  0.48965046     0.22100
C504        C  0.77395864  0.77143328  0.47636550    -0.34100
C505        C  0.73303293  0.72632224  0.47869235     0.16200
O506        O  0.67312200  0.66786170  0.49253949    -0.26200
C507        C  0.66924358  0.65578709  0.47760447     0.06000
C508        C  0.70568652  0.69080103  0.46844600    -0.31000
O509        O  0.83018602  0.84379908  0.49005356    -0.22900
C510        C  0.83381936  0.85611147  0.50495141    -0.02900
C511        C  0.79911278  0.82006835  0.51428739    -0.17300
H512        H  0.71515160  0.72698347  0.51775629     0.20700
H513        H  0.78975393  0.78371699  0.46498166     0.19100
H514        H  0.71071614  0.69049908  0.45602374     0.19000
H515        H  0.79413192  0.82037190  0.52669655     0.14900
C516        C  0.10343398  0.18127612  0.53811494     0.30300
C517        C  0.05855826  0.14260001  0.54223135    -0.36000
C518        C  0.03477341  0.10824144  0.53067077     0.16300
C519        C  0.05346452  0.11164596  0.51599654     0.22100
C520        C  0.09836790  0.15045919  0.51185671    -0.34100
C521        C  0.12238383  0.18470400  0.52347968     0.16200
O522        O  0.13216381  0.21708553  0.54720995    -0.26200
C523        C  0.17015153  0.24380297  0.53830334     0.06000
C524        C  0.16606655  0.22532543  0.52343210    -0.31000
O525        O  0.02561620  0.07439579  0.50722909    -0.22900
C526        C  0.98856328  0.04706562  0.51642964    -0.02900
C527        C  0.99264335  0.06614833  0.53115665    -0.17300
H528        H  0.04355235  0.13915056  0.55371733     0.20700
H529        H  0.11383493  0.15335235  0.50047738     0.19100
H530        H  0.19153362  0.23985205  0.51395568     0.19000
H531        H  0.96848641  0.05047741  0.54091863     0.14900
C532        C  0.46720252  0.48451479  0.50506318     0.30300
C533        C  0.44642592  0.47875454  0.51975331    -0.36000
C534        C  0.40112490  0.43816579  0.52175348     0.16300
C535        C  0.37759800  0.40505201  0.51018144     0.22100
C536        C  0.39857286  0.41059327  0.49547421    -0.34100
C537        C  0.44392127  0.45147823  0.49344272     0.16200
O538        O  0.50890045  0.52057886  0.50055135    -0.26200
C539        C  0.51244891  0.51055671  0.48582915     0.06000
C540        C  0.47308193  0.46798452  0.48080223    -0.31000
O541        O  0.33477410  0.37050622  0.51460326    -0.22900
C542        C  0.33111674  0.38194737  0.52918048    -0.02900
C543        C  0.37136040  0.42357678  0.53418420    -0.17300
H544        H  0.46404844  0.50454285  0.52893629     0.20700
H545        H  0.38055554  0.38526741  0.48620224     0.19100
H546        H  0.46676359  0.45175753  0.46942577     0.19000
H547        H  0.37748368  0.44103104  0.54534277     0.14900
C548        C  0.23056619  0.38758067  0.59895655     0.30300
C549        C  0.20761464  0.38665633  0.61300399    -0.36000
C550        C  0.23083081  0.42846125  0.62211327     0.16300
C551        C  0.27301881  0.46831057  0.61746762     0.22100
C552        C  0.29596660  0.46899885  0.60367780    -0.34100
C553        C  0.27334460  0.42742972  0.59480913     0.16200
O554        O  0.21529504  0.35352714  0.58828075    -0.26200
C555        C  0.24926840  0.37225593  0.57735861     0.06000
C556        C  0.28604234  0.41797093  0.58093058    -0.31000
O557        O  0.28668230  0.50489559  0.62679608    -0.22900
C558        C  0.25365302  0.48852001  0.63787680    -0.02900
C559        C  0.21792735  0.44098951  0.63569125    -0.17300
H560        H  0.17381389  0.35602775  0.61644258     0.20700
H561        H  0.32879318  0.50033220  0.59993174     0.19100
H562        H  0.31735945  0.44146855  0.57407730     0.19000
H563        H  0.18561132  0.42013496  0.64243144     0.14900
C564        C  0.06881347  0.99542341  0.49413702     0.30300
C565        C  0.10302684  0.01655297  0.48225750    -0.36000
C566        C  0.14371912  0.01208744  0.48358306     0.16300
C567        C  0.15059473  0.98866933  0.49583260     0.22100
C568        C  0.11625953  0.96753929  0.50781013    -0.34100
C569        C  0.07523458  0.97184620  0.50641915     0.16200
O570        O  0.02782555  0.99464228  0.49487342    -0.26200
C571        C  0.00705265  0.97024350  0.50781300     0.06000
C572        C  0.03524442  0.95531110  0.51556335    -0.31000
O573        O  0.19113860  0.98834443  0.49454086    -0.22900
C574        C  0.21032356  0.01173727  0.48124951    -0.02900
C575        C  0.18225239  0.02728743  0.47396912    -0.17300
H576        H  0.09797690  0.03481131  0.47253657     0.20700
H577        H  0.12095307  0.94867981  0.51742221     0.19100
H578        H  0.02813725  0.93579989  0.52636385     0.19000
H579        H  0.18904502  0.04659327  0.46309589     0.14900
C580        C  0.75187524  0.93833327  0.51408840     0.30300
C581        C  0.71558818  0.94898761  0.51081138    -0.36000
C582        C  0.67768933  0.93193606  0.52165184     0.16300
C583        C  0.67602539  0.90669148  0.53483127     0.22100
C584        C  0.71210499  0.89620513  0.53806717    -0.34100
C585        C  0.74941971  0.91265237  0.52722329     0.16200
O586        O  0.79139485  0.95153582  0.50591998    -0.26200
C587        C  0.81386495  0.93319174  0.51387285     0.06000
C588        C  0.78941793  0.90919806  0.52726265    -0.31000
O589        O  0.63796375  0.89453224  0.54351780    -0.22900
C590        C  0.61436768  0.91187077  0.53584950    -0.02900
C591        C  0.63740721  0.93552558  0.52212429    -0.17300
H592        H  0.71689668  0.96926644  0.50060693     0.20700
H593        H  0.71121312  0.87658744  0.54839495     0.19100
H594        H  0.80076811  0.89344115  0.53617240     0.19000
H595        H  0.62622266  0.95302089  0.51378521     0.14900
C596        C  0.45252049  0.95771182  0.51020030     0.30300
C597        C  0.44979631  0.97834858  0.49615619    -0.36000
C598        C  0.40944376  0.98325567  0.49431036     0.16300
C599        C  0.37420960  0.96893653  0.50549903     0.22100
C600        C  0.37698192  0.94841105  0.51953517    -0.34100
C601        C  0.41724124  0.94345963  0.52136770     0.16200
O602        O  0.48702991  0.94967067  0.51442037    -0.26200
C603        C  0.47358728  0.93007747  0.52847750     0.06000
C604        C  0.43043872  0.92532406  0.53335831    -0.31000
O605        O  0.33946388  0.97656360  0.50129759    -0.22900
C606        C  0.35254772  0.99597780  0.48721572    -0.02900
C607        C  0.39583582  0.00106023  0.48228870    -0.17300
H608        H  0.47713622  0.98968220  0.48728247     0.20700
H609        H  0.34959828  0.93698660  0.52839824     0.19100
H610        H  0.41161332  0.91073636  0.54421064     0.19000
H611        H  0.41442634  0.01557284  0.47139930     0.14900
C612        C  0.40382052  0.79532975  0.61969057     0.30300
C613        C  0.40405512  0.82296286  0.60711802    -0.36000
C614        C  0.44210533  0.83811088  0.59664647     0.16300
C615        C  0.47786719  0.82718102  0.59833760     0.22100
C616        C  0.47805224  0.80004461  0.61114471    -0.34100
C617        C  0.43974849  0.78472916  0.62169203     0.16200
O618        O  0.36888307  0.77337697  0.62984024    -0.26200
C619        C  0.38283427  0.74911729  0.63873904     0.06000
C620        C  0.42663723  0.75465617  0.63425000    -0.31000
O621        O  0.50796692  0.84232179  0.58640684    -0.22900
C622        C  0.49095919  0.86310545  0.57702649    -0.02900
C623        C  0.45023121  0.86162501  0.58291530    -0.17300
H624        H  0.37536540  0.83031972  0.60524789     0.20700
H625        H  0.50500979  0.78997007  0.61246009     0.19100
H626        H  0.44416000  0.73621275  0.63876817     0.19000
H627        H  0.42859918  0.87448785  0.57754923     0.14900
C628        C  0.78036387  0.26256211  0.41873884     0.30300
C629        C  0.77456192  0.25529641  0.40252180    -0.36000
C630        C  0.74326720  0.26792410  0.39532768     0.16300
C631        C  0.71980183  0.28635740  0.40362547     0.22100
C632        C  0.72598139  0.29407944  0.41957494    -0.34100
C633        C  0.75668818  0.28144419  0.42665291     0.16200
O634        O  0.80777078  0.25388543  0.42808635    -0.26200
C635        C  0.80109583  0.26773633  0.44200505     0.06000
C636        C  0.76972071  0.28499209  0.44167524    -0.31000
O637        O  0.69067143  0.29371712  0.39507840    -0.22900
C638        C  0.69509194  0.28015738  0.38095996    -0.02900
C639        C  0.72767806  0.26400980  0.38028087    -0.17300
H640        H  0.79268483  0.24054023  0.39603128     0.20700
H641        H  0.70752323  0.30845656  0.42608433     0.19100
H642        H  0.75883342  0.29917316  0.45118940     0.19000
H643        H  0.73700337  0.24988101  0.37037069     0.14900
C644        C  0.61120831  0.52067771  0.41466513     0.30300
C645        C  0.63751019  0.51786791  0.40209587    -0.36000
C646        C  0.61188147  0.47982176  0.39169257     0.16300
C647        C  0.56395852  0.44670091  0.39370241     0.22100
C648        C  0.53766662  0.45003055  0.40599939    -0.34100
C649        C  0.56304029  0.48798513  0.41623146     0.16200
O650        O  0.62825484  0.55046360  0.42657684    -0.26200
C651        C  0.59021010  0.53636370  0.43573993     0.06000
C652        C  0.54883191  0.49796886  0.42976092    -0.31000
O653        O  0.54821698  0.41101362  0.38384099    -0.22900
C654        C  0.58602791  0.42172237  0.37505635    -0.02900
C655        C  0.62675833  0.46418254  0.37934175    -0.17300
H656        H  0.67555602  0.54230784  0.40087235     0.20700
H657        H  0.50043118  0.42350675  0.40787679     0.19100
H658        H  0.51374843  0.47842269  0.43507335     0.19000
H659        H  0.66276565  0.47901041  0.37488593     0.14900
C660        C  0.39028984  0.13404361  0.39323873     0.30300
C661        C  0.35416294  0.12769299  0.40376680    -0.36000
C662        C  0.34630219  0.09714923  0.41651738     0.16300
C663        C  0.37234766  0.07457170  0.41866772     0.22100
C664        C  0.40768830  0.08017681  0.40804621    -0.34100
C665        C  0.41555938  0.11065124  0.39538035     0.16200
O666        O  0.40725337  0.16487883  0.38152702    -0.26200
C667        C  0.44325466  0.16048629  0.37596432     0.06000
C668        C  0.45018831  0.12751489  0.38421751    -0.31000
O669        O  0.36262383  0.05131497  0.43198283    -0.22900
C670        C  0.32953909  0.05844861  0.43853326    -0.02900
C671        C  0.31758879  0.08649376  0.42938121    -0.17300
H672        H  0.33511951  0.14697029  0.40250205     0.20700
H673        H  0.42918283  0.06368841  0.40993791     0.19100
H674        H  0.47892640  0.11991037  0.38292418     0.19000
H675        H  0.29343034  0.09929309  0.43217982     0.14900
C676        C  0.48457576  0.67702227  0.14636056     0.30300
C677        C  0.44729891  0.68530319  0.14245516    -0.36000
C678        C  0.41219353  0.67362288  0.15391460     0.16300
C679        C  0.41324901  0.65459389  0.16818628     0.22100
C680        C  0.45056932  0.64640761  0.17210335    -0.34100
C681        C  0.48585921  0.65838604  0.16068435     0.16200
O682        O  0.52109510  0.68516300  0.13740761    -0.26200
C683        C  0.54612201  0.67154926  0.14612214     0.06000
C684        C  0.52580904  0.65458055  0.16070634    -0.31000
O685        O  0.37522298  0.64367332  0.17676175    -0.22900
C686        C  0.34980439  0.65650507  0.16794172    -0.02900
C687        C  0.37113405  0.67534194  0.15362468    -0.17300
H688        H  0.44553226  0.69943888  0.13121635     0.20700
H689        H  0.45166928  0.63113268  0.18319491     0.19100
H690        H  0.53868757  0.64139956  0.16998541     0.19000
H691        H  0.35698664  0.68626091  0.14408029     0.14900
C692        C  0.72927629  0.75084839  0.09048474     0.30300
C693        C  0.77332674  0.77110168  0.08279799    -0.36000
C694        C  0.77503331  0.78995193  0.06801559     0.16300
C695        C  0.73608015  0.78873723  0.06105137     0.22100
C696        C  0.69168727  0.76827184  0.06880735    -0.34100
C697        C  0.69007053  0.74981054  0.08379191     0.16200
O698        O  0.72051876  0.73256509  0.10458343    -0.26200
C699        C  0.67515550  0.71983035  0.10716797     0.06000
C700        C  0.65422384  0.72973989  0.09464632    -0.31000
O701        O  0.74716148  0.81156541  0.04751188    -0.22900
C702        C  0.79379964  0.82754891  0.04596526    -0.02900
C703        C  0.81272948  0.81502357  0.05836617    -0.17300
H704        H  0.80453307  0.77319843  0.08816135     0.20700
H705        H  0.66104131  0.76805272  0.06372924     0.19100
H706        H  0.61809607  0.72315737  0.09370147     0.19000
H707        H  0.84967456  0.82525420  0.06035382     0.14900
C708        C  0.01413469  0.56547065  0.19826409     0.30300
C709        C  0.05617794  0.56525102  0.20186975    -0.36000
C710        C  0.09118534  0.58196044  0.19019197     0.16300
C711        C  0.08535856  0.59735700  0.17581595     0.22100
C712        C  0.04296343  0.59707017  0.17213401    -0.34100
C713        C  0.00802843  0.58083041  0.18391614     0.16200
O714        O  0.97790958  0.55385773  0.20779201    -0.26200
C715        C  0.94803201  0.56183323  0.19947075     0.06000
C716        C  0.96489925  0.57855344  0.18450938    -0.31000
O717        O  0.12375544  0.61311478  0.16689081    -0.22900
C718        C  0.15431447  0.60754596  0.17573659    -0.02900
C719        C  0.13599613  0.58866699  0.19033416    -0.17300
H720        H  0.06176833  0.55407373  0.21315848     0.20700
H721        H  0.03804964  0.60976977  0.16102965     0.19100
H722        H  0.94834339  0.58875924  0.17553153     0.19000
H723        H  0.15368323  0.58162765  0.19977493     0.14900
C724        C  0.73342093  0.62844055  0.16127159     0.30300
C725        C  0.77387910  0.62344555  0.16128724    -0.36000
C726        C  0.78150067  0.60430850  0.17483502     0.16300
C727        C  0.75133903  0.59090302  0.18753056     0.22100
C728        C  0.71056154  0.59571607  0.18749193    -0.34100
C729        C  0.70293426  0.61501461  0.17388677     0.16200
O730        O  0.72029715  0.64627641  0.14985477    -0.26200
C731        C  0.68081067  0.64437843  0.15509911     0.06000
C732        C  0.66805698  0.62516032  0.17002409    -0.31000
O733        O  0.76608792  0.57478544  0.19909221    -0.22900
C734        C  0.80613558  0.57796888  0.19369408    -0.02900
C735        C  0.81738271  0.59597499  0.17863893    -0.17300
H736        H  0.79800167  0.63418522  0.15144871     0.20700
H737        H  0.68678626  0.58557203  0.19740772     0.19100
H738        H  0.63792715  0.61984982  0.17699223     0.19000
H739        H  0.84788013  0.60258608  0.17162297     0.14900
C740        C  0.75405748  0.46124055  0.28745032     0.30300
C741        C  0.76150072  0.49646958  0.27648853    -0.36000
C742        C  0.79280775  0.50307682  0.26426589     0.16300
C743        C  0.81635518  0.47769596  0.26301671     0.22100
C744        C  0.80930712  0.44264331  0.27414635    -0.34100
C745        C  0.77701413  0.43525224  0.28627717     0.16200
O746        O  0.72161627  0.44537485  0.29856244    -0.26200
C747        C  0.72329358  0.40849394  0.30469016     0.06000
C748        C  0.75751662  0.40070032  0.29760092    -0.31000
O749        O  0.84119498  0.48739769  0.24993760    -0.22900
C750        C  0.83287192  0.51898823  0.24272437    -0.02900
C751        C  0.80304587  0.52996417  0.25113370    -0.17300
H752        H  0.74198988  0.51542641  0.27695662     0.20700
H753        H  0.82576619  0.42089911  0.27296268     0.19100
H754        H  0.76424509  0.37161510  0.29964107     0.19000
H755        H  0.78924927  0.55291092  0.24773138     0.14900
C756        C  0.38953674  0.79547184  0.17661958     0.30300
C757        C  0.43386885  0.83571530  0.17288576    -0.36000
C758        C  0.45613051  0.86925804  0.18480352     0.16300
C759        C  0.43624731  0.86354770  0.19940678     0.22100
C760        C  0.39202128  0.82334622  0.20314967    -0.34100
C761        C  0.36966816  0.79003980  0.19121535     0.16200
O762        O  0.36319280  0.75878296  0.16746330    -0.26200
C763        C  0.32575051  0.72993974  0.17628878     0.06000
C764        C  0.32800150  0.74748430  0.19116113    -0.31000
O765        O  0.46342977  0.89900118  0.20882280    -0.22900
C766        C  0.50128103  0.92782879  0.20015494    -0.02900
C767        C  0.49871522  0.91113888  0.18510840    -0.17300
H768        H  0.45008429  0.84033278  0.16153795     0.20700
H769        H  0.37627315  0.81823537  0.21459838     0.19100
H770        H  0.30321275  0.73035316  0.20069442     0.19000
H771        H  0.52459342  0.92738307  0.17580233     0.14900
C772        C  0.59691183  0.08716618  0.26197502     0.30300
C773        C  0.62452472  0.12175194  0.27302525    -0.36000
C774        C  0.59916904  0.12986412  0.28460180     0.16300
C775        C  0.54988072  0.10567452  0.28535153     0.22100
C776        C  0.52210600  0.07002550  0.27445999    -0.34100
C777        C  0.54760085  0.06191893  0.26279760     0.16200
O778        O  0.61344163  0.07745355  0.24939336    -0.31300
C779        C  0.57438397  0.04519615  0.24204537     0.06000
C780        C  0.53226463  0.03371943  0.24989074    -0.31000
O781        O  0.53390361  0.12257763  0.29633312    -0.22900
C782        C  0.57362383  0.15762434  0.30274025    -0.02900
C783        C  0.61513394  0.16345652  0.29591865    -0.17300
H784        H  0.66312332  0.14249396  0.27223478     0.20700
H785        H  0.48343255  0.05149680  0.27464692     0.19100
H786        H  0.49580350  0.01020142  0.24617589     0.19000
H787        H  0.65177633  0.19052908  0.29833178     0.14900
C788        C  0.13787116  0.47601063  0.15249118     0.30300
C789        C  0.11812688  0.44502978  0.13978991    -0.36000
C790        C  0.07687101  0.40087654  0.14289406     0.16300
C791        C  0.05653142  0.38825054  0.15749831     0.22100
C792        C  0.07673724  0.41892706  0.17024176    -0.34100
C793        C  0.11796199  0.46302852  0.16714041     0.16200
O794        O  0.17496872  0.51978412  0.15206416    -0.26200
C795        C  0.17893595  0.53503105  0.16661252     0.06000
C796        C  0.14478197  0.50104969  0.17657839    -0.31000
O797        O  0.01687424  0.34624618  0.15767029    -0.22900
C798        C  0.01172591  0.33149491  0.14301525    -0.02900
C799        C  0.04818941  0.36394578  0.13328817    -0.17300
H800        H  0.13329588  0.45507936  0.12823745     0.20700
H801        H  0.06081645  0.40946904  0.18170456     0.19100
H802        H  0.13990446  0.50409869  0.18886024     0.19000
H803        H  0.05230538  0.36120190  0.12091863     0.14900
C804        C  0.78912813  0.13382566  0.16198209     0.30300
C805        C  0.74455121  0.09162078  0.16272014    -0.36000
C806        C  0.71752854  0.08520953  0.17614183     0.16300
C807        C  0.73334879  0.11801086  0.18807230     0.22100
C808        C  0.77818706  0.16025425  0.18735876    -0.34100
C809        C  0.80526489  0.16676896  0.17387466     0.16200
O810        O  0.81927131  0.14746231  0.15026333    -0.26200
C811        C  0.85538684  0.18969492  0.15461258     0.06000
C812        C  0.84883756  0.20363208  0.16925680    -0.31000
O813        O  0.70169783  0.10508611  0.19940207    -0.22900
C814        C  0.66517290  0.06355768  0.19463708    -0.02900
C815        C  0.67308239  0.04941973  0.18024184    -0.17300
H816        H  0.73156440  0.06587755  0.15336081     0.20700
H817        H  0.79077944  0.18645142  0.19657655     0.19100
H818        H  0.87216727  0.23638180  0.17540983     0.19000
H819        H  0.64935856  0.01765109  0.17370223     0.14900
C820        C  0.93087885  0.13725219  0.05885462     0.30300
C821        C  0.95433166  0.18279313  0.06585528    -0.36000
C822        C  0.93950768  0.18524992  0.08105015     0.16300
C823        C  0.90346793  0.14571711  0.08857593     0.22100
C824        C  0.87998581  0.10063596  0.08161952    -0.34100
C825        C  0.89530928  0.09807981  0.06666761     0.16200
O826        O  0.94196397  0.12533688  0.04542406    -0.26200
C827        C  0.91325677  0.07796038  0.04482921     0.06000
C828        C  0.88348189  0.05936528  0.05770602    -0.31000
O829        O  0.89611150  0.15506166  0.10279535    -0.22900
C830        C  0.92796484  0.20116272  0.10465070    -0.02900
C831        C  0.95619778  0.22209615  0.09149869    -0.17300
H832        H  0.98334225  0.21361766  0.06012992     0.20700
H833        H  0.85286670  0.06927649  0.08770793     0.19100
H834        H  0.85871600  0.02217523  0.06048344     0.19000
H835        H  0.98491547  0.25865791  0.08994705     0.14900
C836        C  0.30238198  0.45049683  0.19956029     0.30300
C837        C  0.30699573  0.49488184  0.20311832    -0.36000
C838        C  0.29272158  0.51556369  0.19151423     0.16300
C839        C  0.27441197  0.49390430  0.17740916     0.22100
C840        C  0.26933474  0.44920107  0.17389665    -0.34100
C841        C  0.28421229  0.42872843  0.18545653     0.16200
O842        O  0.31465830  0.42539884  0.20859431    -0.26200
C843        C  0.30435834  0.38695279  0.20019382     0.06000
C844        C  0.28515907  0.38708228  0.18570438    -0.31000
O845        O  0.26272269  0.51955867  0.16838009    -0.22900
C846        C  0.27450029  0.55847279  0.17675397    -0.02900
C847        C  0.29286455  0.55760123  0.19127105    -0.17300
H848        H  0.32118424  0.51233972  0.21413523     0.20700
H849        H  0.25508683  0.43174765  0.16288590     0.19100
H850        H  0.27377172  0.36044489  0.17664838     0.19000
H851        H  0.30365257  0.58380221  0.20045119     0.14900
C852        C  0.43847377  0.33069299  0.28480550     0.30300
C853        C  0.43192480  0.36083237  0.27447077    -0.36000
C854        C  0.39910691  0.33791496  0.26231213     0.16300
C855        C  0.37502377  0.28889389  0.26047994     0.22100
C856        C  0.38060772  0.25891643  0.27096089    -0.34100
C857        C  0.41282305  0.28165038  0.28310418     0.16200
O858        O  0.47035448  0.34415219  0.29611814    -0.26200
C859        C  0.46433679  0.30300505  0.30178525     0.06000
C860        C  0.42867009  0.26310698  0.29419624    -0.31000
O861        O  0.34951762  0.27496899  0.24768572    -0.22900
C862        C  0.35642390  0.31530939  0.24119623    -0.02900
C863        C  0.38672087  0.35583109  0.24983463    -0.17300
H864        H  0.45226128  0.39939210  0.27548190     0.20700
H865        H  0.36241645  0.22054465  0.26940572     0.19100
H866        H  0.41818356  0.22593659  0.29592594     0.19000
H867        H  0.39971879  0.39294814  0.24691342     0.14900
C868        C  0.20629657  0.81945124  0.14407244     0.30300
C869        C  0.19424300  0.77191577  0.14133105    -0.36000
C870        C  0.20913608  0.75077914  0.15261372     0.16300
C871        C  0.23486397  0.77493151  0.16558458     0.22100
C872        C  0.24685598  0.82246670  0.16834739    -0.34100
C873        C  0.23133675  0.84339037  0.15718058     0.16200
O874        O  0.19591633  0.84607482  0.13506151    -0.26200
C875        C  0.21422864  0.88756767  0.14253867     0.06000
C876        C  0.23665845  0.88789311  0.15638004    -0.31000
O877        O  0.24742182  0.74909824  0.17414083    -0.22900
C878        C  0.22882783  0.70745191  0.16671367    -0.02900
C879        C  0.20468387  0.70665974  0.15323112    -0.17300
H880        H  0.17477109  0.75278191  0.13106956     0.20700
H881        H  0.26720579  0.84191949  0.17844274     0.19100
H882        H  0.25445160  0.91680765  0.16461572     0.19000
H883        H  0.18860059  0.67853465  0.14465683     0.14900
C884        C  0.25704649  0.09378408  0.16904937     0.30300
C885        C  0.27352386  0.11504297  0.18363404    -0.36000
C886        C  0.27836408  0.16032455  0.18560856     0.16300
C887        C  0.26780668  0.18321608  0.17405213     0.22100
C888        C  0.25130235  0.16195595  0.15949747    -0.34100
C889        C  0.24640287  0.11670912  0.15753163     0.16200
O890        O  0.24977134  0.05157836  0.16462313    -0.26200
C891        C  0.23425575  0.04750762  0.15007726     0.06000
C892        C  0.23142510  0.08696698  0.14509504    -0.31000
O893        O  0.27520418  0.22549085  0.17838308    -0.22900
C894        C  0.29072574  0.22977798  0.19291765    -0.02900
C895        C  0.29334772  0.19027416  0.19801990    -0.17300
H896        H  0.28199761  0.09754588  0.19279366     0.20700
H897        H  0.24288234  0.17948134  0.15033353     0.19100
H898        H  0.21987330  0.09281340  0.13391664     0.19000
H899        H  0.30485248  0.18459712  0.20923096     0.14900
C900        C  0.09750789  0.98159566  0.05982942     0.30300
C901        C  0.12615374  0.00947827  0.07206975    -0.36000
C902        C  0.14311609  0.98730963  0.08204805     0.16300
C903        C  0.13273154  0.94069248  0.08026469     0.22100
C904        C  0.10464524  0.91285759  0.06772201    -0.34100
C905        C  0.08772164  0.93528846  0.05759235     0.16200
O906        O  0.07393182  0.99389566  0.05026247    -0.26200
C907        C  0.04937505  0.95554633  0.04146803     0.06000
C908        C  0.05660747  0.91788207  0.04537744    -0.31000
O909        O  0.14908923  0.92626981  0.09194466    -0.22900
C910        C  0.17016326  0.96441440  0.10118443    -0.02900
C911        C  0.16774082  0.00331618  0.09547418    -0.17300
H912        H  0.13290641  0.04533075  0.07410161     0.20700
H913        H  0.09502798  0.87585384  0.06633235     0.19100
H914        H  0.03849618  0.88188250  0.04079845     0.19000
H915        H  0.18022613  0.03777124  0.10086426     0.14900
loop_ 
_geom_bond_atom_site_label_1 
_geom_bond_atom_site_label_2 
_geom_bond_distance 
_geom_bond_site_symmetry_2 
_ccdc_geom_bond_type 
C1            N2   1.364       .  A
C1            N6   1.365       .  A
C1          C875   1.476       .  S
N2            C3   1.358   1_565  A
C3            N4   1.353       .  A
C3          C891   1.474       .  S
N4            C5   1.356   1_545  A
C5            N6   1.361       .  A
C5          C910   1.475       .  S
C7            N8   1.363       .  A
C7           N12   1.366       .  A
C7          C843   1.479       .  S
N8            C9   1.358       .  A
C9           N10   1.354       .  A
C9          C894   1.472       .  S
N10          C11   1.355       .  A
C11          N12   1.363       .  A
C11         C862   1.473       .  S
C13          N14   1.352       .  A
C13          N18   1.362       .  A
C13         C830   1.470       .  S
N14          C15   1.350       .  A
C15          N16   1.357       .  A
C15         C811   1.469       .  S
N16          C17   1.363       .  A
C17          N18   1.367       .  A
C17         C798   1.473   1_655  S
C19          N20   1.358   1_545  A
C19          N24   1.358       .  A
C19         C779   1.469       .  S
N20          C21   1.359       .  A
C21          N22   1.360       .  A
C21         C766   1.469       .  S
N22          C23   1.359   1_565  A
C23          N24   1.357       .  A
C23         C814   1.472       .  S
C25          N26   1.358       .  A
C25          N30   1.362       .  A
C25         C750   1.475       .  S
N26          C27   1.354       .  A
C27          N28   1.357       .  A
C27         C734   1.469       .  S
N28          C29   1.359       .  A
C29          N30   1.364       .  A
C29         C715   1.476       .  S
C31          N32   1.362       .  A
C31          N36   1.353       .  A
C31         C699   1.472       .  S
N32          C33   1.365       .  A
C33          N34   1.363       .  A
C33         C683   1.476       .  S
N34          C35   1.358       .  A
C35          N36   1.352       .  A
C35         C731   1.468       .  S
C37         C718   1.483       .  S
C37          C38   1.416       .  A
C37          C42   1.413       .  A
C38         C878   1.491       .  S
C38          C39   1.417       .  A
C39         C763   1.479       .  S
C39          C40   1.413       .  A
C40         C686   1.484       .  S
C40          C41   1.411       .  A
C41         C846   1.485       .  S
C41          C42   1.407       .  A
C42         C795   1.479       .  S
O43          C59   1.271       .  A
O43         Zn49   1.985       .  S
C44         C654   1.463       .  S
C44          O60   1.270       .  A
C44          O57   1.275       .  A
O45          C58   1.277       .  A
O45         Cd52   2.109       .  S
O46          C64   1.277       .  A
O46         Cd55   2.091       .  S
O47          C61   1.277       .  A
O47         Cd51   2.095       .  S
O48          C59   1.277       .  A
O48         Cd51   2.100       .  S
Zn49         O60   1.997       .  S
Zn49         O62   2.004       .  S
Zn49         O54   1.925       .  S
O50          C61   1.276       .  A
O50         Cd55   2.075       .  S
Cd51         O53   2.070       .  S
Cd51         O54   2.021       .  S
Cd52         O56   2.091       .  S
Cd52         O65   2.078       .  S
Cd52         O54   2.013       .  S
O53          C63   1.276       .  A
O54         Cd55   2.012       .  S
Cd55         O57   2.091       .  S
O56          C63   1.277       .  A
C58         C667   1.472       .  S
C58          O62   1.270       .  A
C59         C638   1.468       .  S
C61         C747   1.477       .  S
C63         C782   1.475       .  S
C64         C859   1.477       .  S
C64          O65   1.278       .  A
C66          N67   1.363       .  A
C66          N71   1.354       .  A
C66         C622   1.479       .  S
N67          C68   1.368       .  A
C68          N69   1.362       .  A
C68         C590   1.480       .  S
N69          C70   1.358       .  A
C70          N71   1.353       .  A
C70         C603   1.470       .  S
C72          N73   1.365       .  A
C72          N77   1.355       .  A
C72         C670   1.478       .  S
N73          C74   1.368       .  A
C74          N75   1.361       .  A
C74         C574   1.482       .  S
N75          C76   1.359       .  A
C76          N77   1.354       .  A
C76         C606   1.471   1_545  S
C78          N79   1.353       .  A
C78          N83   1.361       .  A
C78         C555   1.475       .  S
N79          C80   1.351       .  A
C80          N81   1.356       .  A
C80         C542   1.470       .  S
N81          C82   1.364       .  A
C82          N83   1.367       .  A
C82         C523   1.472       .  S
C84          N85   1.353       .  A
C84          N89   1.362       .  A
C84         C651   1.472       .  S
N85          C86   1.350       .  A
C86          N87   1.359       .  A
C86         C539   1.471       .  S
N87          C88   1.364       .  A
C88          N89   1.367       .  A
C88         C507   1.478       .  S
C90          N91   1.362       .  A
C90          N95   1.352       .  A
C90         C494   1.473   1_655  S
N91          C92   1.368       .  A
C92          N93   1.363       .  A
C92         C462   1.475       .  S
N93          C94   1.357       .  A
C94          N95   1.350       .  A
C94         C475   1.468       .  S
C96          N97   1.369       .  A
C96         N101   1.363       .  A
C96         C446   1.477       .  S
N97          C98   1.362       .  A
C98          N99   1.352       .  A
C98         C635   1.472       .  S
N99         C100   1.350       .  A
C100        N101   1.358       .  A
C100        C478   1.469       .  S
C102        C587   1.492       .  S
C102        C103   1.414       .  A
C102        C107   1.417       .  A
C103        C443   1.487   1_565  S
C103        C104   1.418       .  A
C104        C526   1.482   1_565  S
C104        C105   1.417       .  A
C105        C571   1.497   1_655  S
C105        C106   1.418       .  A
C106        C459   1.482       .  S
C106        C107   1.414       .  A
C107        C510   1.486       .  S
C108        N109   1.360       .  A
C108        N113   1.361       .  A
C108        C395   1.471       .  S
N109        C110   1.360       .  A
C110        N111   1.356       .  A
C110        C414   1.470       .  S
N111        C112   1.356       .  A
C112        N113   1.357       .  A
C112        C430   1.469       .  S
C114        N115   1.362   1_545  A
C114        N119   1.363       .  A
C114        C366   1.473       .  S
N115        C116   1.360       .  A
C116        N117   1.355       .  A
C116        C411   1.472       .  S
N117        C118   1.357       .  A
C118        N119   1.358   1_565  A
C118        C382   1.473       .  S
C120        N121   1.361       .  A
C120        N125   1.355       .  A
C120        C347   1.473       .  S
N121        C122   1.364       .  A
C122        N123   1.360       .  A
C122        C318   1.472       .  S
N123        C124   1.356       .  A
C124        N125   1.355       .  A
C124        C331   1.469       .  S
C126        N127   1.356       .  A
C126        N131   1.357       .  A
C126        C299   1.471       .  S
N127        C128   1.355       .  A
C128        N129   1.360       .  A
C128        C334   1.473       .  S
N129        C130   1.363       .  A
C130        N131   1.361       .  A
C130        C283   1.472       .  S
C132        N133   1.362       .  A
C132        N137   1.361       .  A
C132        C238   1.472       .  S
N133        C134   1.357       .  A
C134        N135   1.355       .  A
C134        C267   1.466       .  S
N135        C136   1.356       .  A
C136        N137   1.360       .  A
C136        C251   1.472       .  S
C138        N139   1.365       .  A
C138        N143   1.365       .  A
C138        C203   1.480       .  S
N139        C140   1.360       .  A
C140        N141   1.354   1_655  A
C140        C254   1.476   1_655  S
N141        C142   1.354   1_455  A
C142        N143   1.361       .  A
C142        C219   1.473   1_655  S
C144        C235   1.484       .  S
C144        C145   1.413       .  A
C144        C149   1.413       .  A
C145        C398   1.480       .  S
C145        C146   1.413       .  A
C146        C286   1.478       .  S
C146        C147   1.413       .  A
C147        C206   1.492       .  S
C147        C148   1.415       .  A
C148        C363   1.483       .  S
C148        C149   1.417       .  A
C149        C315   1.483       .  S
O150        C166   1.272   1_655  A
O150       Zn156   2.004       .  S
C151        C827   1.474       .  S
C151        O167   1.271       .  A
C151        O164   1.276       .  A
O152        C165   1.278       .  A
O152       Cd159   2.109       .  S
O153        C171   1.277   1_545  A
O153       Cd162   2.082   1_556  S
O154        C168   1.274       .  A
O154       Cd158   2.065   1_445  S
O155        C166   1.273       .  A
O155       Cd158   2.079   1_454  S
Zn156       O167   1.999   1_565  S
Zn156       O169   1.985       .  S
Zn156       O161   1.904       .  S
O157        C168   1.277   1_655  A
O157       Cd162   2.070   1_556  S
Cd158       O160   2.058       .  S
Cd158       O161   2.006   1_556  S
Cd159       O163   2.099   1_554  S
Cd159       O172   2.080   1_554  S
Cd159       O161   2.010       .  S
O160        C170   1.273       .  A
O161       Cd162   2.011   1_565  S
Cd162       O164   2.106       .  S
O163        C170   1.278       .  A
C165        C702   1.471       .  S
C165        O169   1.271       .  A
C166        C907   1.462       .  S
C168        C270   1.466       .  S
C170        C302   1.473       .  S
C171        C379   1.473       .  S
C171        O172   1.278       .  A
O173        C189   1.270       .  A
O173       Zn179   1.994       .  S
C174        C491   1.474       .  S
C174        O190   1.270       .  A
C174        O187   1.279       .  A
O175        C188   1.275       .  A
O175       Cd182   2.088       .  S
O176        C194   1.277       .  A
O176       Cd185   2.078       .  S
O177        C191   1.275       .  A
O177       Cd181   2.060       .  S
O178        C189   1.275       .  A
O178       Cd181   2.096       .  S
Zn179       O190   1.992       .  S
Zn179       O192   1.995       .  S
Zn179       O184   1.917       .  S
O180        C191   1.277       .  A
O180       Cd185   2.089       .  S
Cd181       O183   2.082       .  S
Cd181       O184   2.009       .  S
Cd182       O186   2.070       .  S
Cd182       O195   2.086       .  S
Cd182       O184   2.013       .  S
O183        C193   1.276       .  A
O184       Cd185   2.016       .  S
Cd185       O187   2.118       .  S
O186        C193   1.275       .  A
C188        C619   1.462       .  S
C188        O192   1.270       .  A
C189        C558   1.465       .  S
C191        C222   1.472       .  S
C193        C427   1.471       .  S
C194        C350   1.475       .  S
C194        O195   1.276       .  A
C196        C201   1.380       .  A
C196        C197   1.405       .  A
C196        O202   1.322       .  A
C197        C198   1.405       .  A
C197        H208   1.083       .  S
C198        C207   1.361       .  A
C198        C199   1.380       .  A
C199        C200   1.406       .  A
C199        O205   1.323       .  A
C200        C201   1.406       .  A
C200        H209   1.082       .  S
C201        C204   1.365       .  A
O202        C203   1.332       .  A
C203        C204   1.394       .  A
C204        H210   1.082       .  S
O205        C206   1.333       .  A
C206        C207   1.393       .  A
C207        H211   1.083       .  S
C212        C217   1.380       .  A
C212        C213   1.400       .  A
C212        O218   1.314       .  A
C213        C214   1.398       .  A
C213        H224   1.082       .  S
C214        C223   1.358       .  A
C214        C215   1.380       .  A
C215        C216   1.409       .  A
C215        O221   1.322       .  A
C216        C217   1.408       .  A
C216        H225   1.082       .  S
C217        C220   1.370   1_455  A
O218        C219   1.329       .  A
C219        C220   1.395   1_455  A
C220        H226   1.082       .  S
O221        C222   1.333       .  A
C222        C223   1.390       .  A
C223        H227   1.082       .  S
C228        C233   1.380       .  A
C228        C229   1.398       .  A
C228        O234   1.313       .  A
C229        C230   1.397       .  A
C229        H240   1.082       .  S
C230        C239   1.357       .  A
C230        C231   1.380       .  A
C231        C232   1.409       .  A
C231        O237   1.322       .  A
C232        C233   1.408       .  A
C232        H241   1.082       .  S
C233        C236   1.368       .  A
O234        C235   1.328       .  A
C235        C236   1.396       .  A
C236        H242   1.081       .  S
O237        C238   1.334       .  A
C238        C239   1.389       .  A
C239        H243   1.083       .  S
C244        C249   1.381       .  A
C244        C245   1.402       .  A
C244        O250   1.320       .  A
C245        C246   1.403       .  A
C245        H256   1.083       .  S
C246        C255   1.359       .  A
C246        C247   1.380       .  A
C247        C248   1.405       .  A
C247        O253   1.323       .  A
C248        C249   1.405       .  A
C248        H257   1.082       .  S
C249        C252   1.361       .  A
O250        C251   1.330       .  A
C251        C252   1.393       .  A
C252        H258   1.083       .  S
O253        C254   1.332       .  A
C254        C255   1.393       .  A
C255        H259   1.083       .  S
C260        C265   1.381       .  A
C260        C261   1.397       .  A
C260        O266   1.313       .  A
C261        C262   1.396       .  A
C261        H272   1.082       .  S
C262        C271   1.355       .  A
C262        C263   1.380       .  A
C263        C264   1.407       .  A
C263        O269   1.320       .  A
C264        C265   1.406       .  A
C264        H273   1.082       .  S
C265        C268   1.367       .  A
O266        C267   1.327       .  A
C267        C268   1.393       .  A
C268        H274   1.082       .  S
O269        C270   1.333       .  A
C270        C271   1.387       .  A
C271        H275   1.082       .  S
C276        C281   1.381       .  A
C276        C277   1.401       .  A
C276        O282   1.317       .  A
C277        C278   1.400       .  A
C277        H288   1.082       .  S
C278        C287   1.357       .  A
C278        C279   1.381       .  A
C279        C280   1.404       .  A
C279        O285   1.320       .  A
C280        C281   1.404       .  A
C280        H289   1.082       .  S
C281        C284   1.364       .  A
O282        C283   1.330       .  A
C283        C284   1.393       .  A
C284        H290   1.082       .  S
O285        C286   1.329       .  A
C286        C287   1.389       .  A
C287        H291   1.083       .  S
C292        C297   1.380       .  A
C292        C293   1.409       .  A
C292        O298   1.324       .  A
C293        C294   1.409       .  A
C293        H304   1.082       .  S
C294        C303   1.369       .  A
C294        C295   1.381       .  A
C295        C296   1.399       .  A
C295        O301   1.315       .  A
C296        C297   1.397       .  A
C296        H305   1.082       .  S
C297        C300   1.356       .  A
O298        C299   1.334       .  A
C299        C300   1.388       .  A
C300        H306   1.083       .  S
O301        C302   1.329       .  A
C302        C303   1.395       .  A
C303        H307   1.082       .  S
C308        C313   1.380       .  A
C308        C309   1.406       .  A
C308        O314   1.323       .  A
C309        C310   1.407       .  A
C309        H320   1.082       .  S
C310        C319   1.363       .  A
C310        C311   1.381       .  A
C311        C312   1.400       .  A
C311        O317   1.319       .  A
C312        C313   1.400       .  A
C312        H321   1.082       .  S
C313        C316   1.355       .  A
O314        C315   1.333       .  A
C315        C316   1.388       .  A
C316        H322   1.082       .  S
O317        C318   1.329   1_545  A
C318        C319   1.394   1_565  A
C319        H323   1.082   1_545  S
C324        C329   1.380       .  A
C324        C325   1.404       .  A
C324        O330   1.321       .  A
C325        C326   1.405       .  A
C325        H336   1.082       .  S
C326        C335   1.360       .  A
C326        C327   1.381       .  A
C327        C328   1.401       .  A
C327        O333   1.320   1_455  A
C328        C329   1.401       .  A
C328        H337   1.082       .  S
C329        C332   1.357       .  A
O330        C331   1.332       .  A
C331        C332   1.390       .  A
C332        H338   1.083       .  S
O333        C334   1.330       .  A
C334        C335   1.393   1_655  A
C335        H339   1.083       .  S
C340        C345   1.380       .  A
C340        C341   1.401       .  A
C340        O346   1.316       .  A
C341        C342   1.400       .  A
C341        H352   1.082       .  S
C342        C351   1.360       .  A
C342        C343   1.380       .  A
C343        C344   1.408       .  A
C343        O349   1.322       .  A
C344        C345   1.407       .  A
C344        H353   1.082       .  S
C345        C348   1.368       .  A
O346        C347   1.330       .  A
C347        C348   1.394       .  A
C348        H354   1.082       .  S
O349        C350   1.334       .  A
C350        C351   1.391       .  A
C351        H355   1.082       .  S
C356        C361   1.379       .  A
C356        C357   1.403       .  A
C356        O362   1.317       .  A
C357        C358   1.402       .  A
C357        H368   1.082       .  S
C358        C367   1.361       .  A
C358        C359   1.380       .  A
C359        C360   1.404       .  A
C359        O365   1.320       .  A
C360        C361   1.403       .  A
C360        H369   1.082       .  S
C361        C364   1.362       .  A
O362        C363   1.331       .  A
C363        C364   1.392       .  A
C364        H370   1.079       .  S
O365        C366   1.332       .  A
C366        C367   1.392       .  A
C367        H371   1.082       .  S
C372        C377   1.380       .  A
C372        C373   1.399       .  A
C372        O378   1.316       .  A
C373        C374   1.399       .  A
C373        H384   1.082       .  S
C374        C383   1.356       .  A
C374        C375   1.380       .  A
C375        C376   1.409   1_565  A
C375        O381   1.324   1_565  A
C376        C377   1.409   1_545  A
C376        H385   1.082       .  S
C377        C380   1.368   1_565  A
O378        C379   1.329       .  A
C379        C380   1.396   1_565  A
C380        H386   1.082       .  S
O381        C382   1.334   1_545  A
C382        C383   1.389       .  A
C383        H387   1.082       .  S
C388        C393   1.380       .  A
C388        C389   1.407       .  A
C388        O394   1.321       .  A
C389        C390   1.405       .  A
C389        H400   1.083       .  S
C390        C399   1.365       .  A
C390        C391   1.380       .  A
C391        C392   1.399       .  A
C391        O397   1.314       .  A
C392        C393   1.398       .  A
C392        H401   1.083       .  S
C393        C396   1.357       .  A
O394        C395   1.333       .  A
C395        C396   1.389       .  A
C396        H402   1.083       .  S
O397        C398   1.328       .  A
C398        C399   1.394       .  A
C399        H403   1.081       .  S
C404        C409   1.380       .  A
C404        C405   1.404       .  A
C404        O410   1.317       .  A
C405        C406   1.402       .  A
C405        H416   1.082       .  S
C406        C415   1.364       .  A
C406        C407   1.380       .  A
C407        C408   1.404       .  A
C407        O413   1.317       .  A
C408        C409   1.403       .  A
C408        H417   1.082       .  S
C409        C412   1.365       .  A
O410        C411   1.331       .  A
C411        C412   1.392       .  A
C412        H418   1.082       .  S
O413        C414   1.331       .  A
C414        C415   1.391       .  A
C415        H419   1.082       .  S
C420        C425   1.381       .  A
C420        C421   1.400       .  A
C420        O426   1.317       .  A
C421        C422   1.399       .  A
C421        H432   1.082       .  S
C422        C431   1.358       .  A
C422        C423   1.380       .  A
C423        C424   1.406       .  A
C423        O429   1.321       .  A
C424        C425   1.405       .  A
C424        H433   1.082       .  S
C425        C428   1.364       .  A
O426        C427   1.330       .  A
C427        C428   1.393       .  A
C428        H434   1.082       .  S
O429        C430   1.332       .  A
C430        C431   1.389       .  A
C431        H435   1.082       .  S
C436        C441   1.379       .  A
C436        C437   1.402       .  A
C436        O442   1.317       .  A
C437        C438   1.401       .  A
C437        H448   1.082       .  S
C438        C447   1.362       .  A
C438        C439   1.379       .  A
C439        C440   1.409       .  A
C439        O445   1.322       .  A
C440        C441   1.407       .  A
C440        H449   1.082       .  S
C441        C444   1.367       .  A
O442        C443   1.330       .  A
C443        C444   1.395       .  A
C444        H450   1.081       .  S
O445        C446   1.335       .  A
C446        C447   1.390       .  A
C447        H451   1.082       .  S
C452        C457   1.380       .  A
C452        C453   1.406       .  A
C452        O458   1.323       .  A
C453        C454   1.407       .  A
C453        H464   1.082       .  S
C454        C463   1.363       .  A
C454        C455   1.381       .  A
C455        C456   1.402       .  A
C455        O461   1.320       .  A
C456        C457   1.402       .  A
C456        H465   1.082       .  S
C457        C460   1.358       .  A
O458        C459   1.332       .  A
C459        C460   1.390       .  A
C460        H466   1.082       .  S
O461        C462   1.330       .  A
C462        C463   1.395       .  A
C463        H467   1.082       .  S
C468        C473   1.381       .  A
C468        C469   1.401       .  A
C468        O474   1.321       .  A
C469        C470   1.402       .  A
C469        H480   1.082       .  S
C470        C479   1.356       .  A
C470        C471   1.381       .  A
C471        C472   1.400       .  A
C471        O477   1.320       .  A
C472        C473   1.402       .  A
C472        H481   1.082       .  S
C473        C476   1.355       .  A
O474        C475   1.330       .  A
C475        C476   1.392       .  A
C476        H482   1.083       .  S
O477        C478   1.329       .  A
C478        C479   1.393       .  A
C479        H483   1.083       .  S
C484        C489   1.380       .  A
C484        C485   1.396       .  A
C484        O490   1.313       .  A
C485        C486   1.395       .  A
C485        H496   1.082       .  S
C486        C495   1.350       .  A
C486        C487   1.380       .  A
C487        C488   1.413       .  A
C487        O493   1.328       .  A
C488        C489   1.413       .  A
C488        H497   1.082       .  S
C489        C492   1.374       .  A
O490        C491   1.328       .  A
C491        C492   1.397       .  A
C492        H498   1.082       .  S
O493        C494   1.335       .  A
C494        C495   1.388       .  A
C495        H499   1.083       .  S
C500        C505   1.379       .  A
C500        C501   1.407       .  A
C500        O506   1.321       .  A
C501        C502   1.405       .  A
C501        H512   1.082       .  S
C502        C511   1.367       .  A
C502        C503   1.379       .  A
C503        C504   1.406       .  A
C503        O509   1.319       .  A
C504        C505   1.405       .  A
C504        H513   1.082       .  S
C505        C508   1.366       .  A
O506        C507   1.333       .  A
C507        C508   1.393       .  A
C508        H514   1.082       .  S
O509        C510   1.332       .  A
C510        C511   1.392       .  A
C511        H515   1.081       .  S
C516        C521   1.380       .  A
C516        C517   1.402       .  A
C516        O522   1.320       .  A
C517        C518   1.402       .  A
C517        H528   1.082       .  S
C518        C527   1.358   1_455  A
C518        C519   1.380       .  A
C519        C520   1.404       .  A
C519        O525   1.322       .  A
C520        C521   1.405       .  A
C520        H529   1.082       .  S
C521        C524   1.361       .  A
O522        C523   1.330       .  A
C523        C524   1.393       .  A
C524        H530   1.083       .  S
O525        C526   1.331   1_455  A
C526        C527   1.389       .  A
C527        H531   1.082       .  S
C532        C537   1.381       .  A
C532        C533   1.399       .  A
C532        O538   1.320       .  A
C533        C534   1.400       .  A
C533        H544   1.083       .  S
C534        C543   1.354       .  A
C534        C535   1.381       .  A
C535        C536   1.404       .  A
C535        O541   1.323       .  A
C536        C537   1.405       .  A
C536        H545   1.083       .  S
C537        C540   1.359       .  A
O538        C539   1.329       .  A
C539        C540   1.394       .  A
C540        H546   1.083       .  S
O541        C542   1.332       .  A
C542        C543   1.390       .  A
C543        H547   1.083       .  S
C548        C553   1.379       .  A
C548        C549   1.412       .  A
C548        O554   1.328       .  A
C549        C550   1.412       .  A
C549        H560   1.082       .  S
C550        C559   1.371       .  A
C550        C551   1.381       .  A
C551        C552   1.395       .  A
C551        O557   1.312       .  A
C552        C553   1.394       .  A
C552        H561   1.082       .  S
C553        C556   1.349       .  A
O554        C555   1.336       .  A
C555        C556   1.388       .  A
C556        H562   1.083       .  S
O557        C558   1.326       .  A
C558        C559   1.395       .  A
C559        H563   1.082       .  S
C564        C569   1.378       .  A
C564        C565   1.404   1_565  A
C564        O570   1.317       .  A
C565        C566   1.402       .  A
C565        H576   1.082       .  S
C566        C575   1.364       .  A
C566        C567   1.379   1_545  A
C567        C568   1.412       .  A
C567        O573   1.324       .  A
C568        C569   1.410       .  A
C568        H577   1.082       .  S
C569        C572   1.371       .  A
O570        C571   1.331       .  A
C571        C572   1.399       .  A
C572        H578   1.079       .  S
O573        C574   1.336   1_565  A
C574        C575   1.391       .  A
C575        H579   1.082       .  S
C580        C585   1.379       .  A
C580        C581   1.411       .  A
C580        O586   1.327       .  A
C581        C582   1.412       .  A
C581        H592   1.082       .  S
C582        C591   1.368       .  A
C582        C583   1.380       .  A
C583        C584   1.400       .  A
C583        O589   1.320       .  A
C584        C585   1.401       .  A
C584        H593   1.082       .  S
C585        C588   1.356       .  A
O586        C587   1.336       .  A
C587        C588   1.389       .  A
C588        H594   1.082       .  S
O589        C590   1.329       .  A
C590        C591   1.398       .  A
C591        H595   1.083       .  S
C596        C601   1.381       .  A
C596        C597   1.403       .  A
C596        O602   1.321       .  A
C597        C598   1.404       .  A
C597        H608   1.082       .  S
C598        C607   1.360   1_565  A
C598        C599   1.381       .  A
C599        C600   1.401       .  A
C599        O605   1.319       .  A
C600        C601   1.401       .  A
C600        H609   1.083       .  S
C601        C604   1.357       .  A
O602        C603   1.331       .  A
C603        C604   1.392       .  A
C604        H610   1.083       .  S
O605        C606   1.330       .  A
C606        C607   1.393   1_565  A
C607        H611   1.083       .  S
C612        C617   1.381       .  A
C612        C613   1.399       .  A
C612        O618   1.316       .  A
C613        C614   1.399       .  A
C613        H624   1.082       .  S
C614        C623   1.355       .  A
C614        C615   1.380       .  A
C615        C616   1.409       .  A
C615        O621   1.326       .  A
C616        C617   1.409       .  A
C616        H625   1.082       .  S
C617        C620   1.367       .  A
O618        C619   1.328       .  A
C619        C620   1.392       .  A
C620        H626   1.082       .  S
O621        C622   1.334       .  A
C622        C623   1.392       .  A
C623        H627   1.083       .  S
C628        C633   1.380       .  A
C628        C629   1.413       .  A
C628        O634   1.329       .  A
C629        C630   1.413       .  A
C629        H640   1.082       .  S
C630        C639   1.373       .  A
C630        C631   1.381       .  A
C631        C632   1.393       .  A
C631        O637   1.310       .  A
C632        C633   1.392       .  A
C632        H641   1.082       .  S
C633        C636   1.348       .  A
O634        C635   1.336       .  A
C635        C636   1.386       .  A
C636        H642   1.083       .  S
O637        C638   1.326       .  A
C638        C639   1.396       .  A
C639        H643   1.082       .  S
C644        C649   1.380       .  A
C644        C645   1.408       .  A
C644        O650   1.326       .  A
C645        C646   1.409       .  A
C645        H656   1.082       .  S
C646        C655   1.367       .  A
C646        C647   1.381       .  A
C647        C648   1.397       .  A
C647        O653   1.315       .  A
C648        C649   1.397       .  A
C648        H657   1.082       .  S
C649        C652   1.351       .  A
O650        C651   1.333       .  A
C651        C652   1.389       .  A
C652        H658   1.083       .  S
O653        C654   1.327       .  A
C654        C655   1.393       .  A
C655        H659   1.082       .  S
C660        C665   1.380       .  A
C660        C661   1.410       .  A
C660        O666   1.324       .  A
C661        C662   1.408       .  A
C661        H672   1.082       .  S
C662        C671   1.372       .  A
C662        C663   1.380       .  A
C663        C664   1.403       .  A
C663        O669   1.316       .  A
C664        C665   1.401       .  A
C664        H673   1.083       .  S
C665        C668   1.363       .  A
O666        C667   1.334       .  A
C667        C668   1.390       .  A
C668        H674   1.083       .  S
O669        C670   1.331       .  A
C670        C671   1.395       .  A
C671        H675   1.082       .  S
C676        C681   1.380       .  A
C676        C677   1.404       .  A
C676        O682   1.322       .  A
C677        C678   1.404       .  A
C677        H688   1.082       .  S
C678        C687   1.360       .  A
C678        C679   1.380       .  A
C679        C680   1.404       .  A
C679        O685   1.321       .  A
C680        C681   1.404       .  A
C680        H689   1.082       .  S
C681        C684   1.361       .  A
O682        C683   1.332       .  A
C683        C684   1.393       .  A
C684        H690   1.082       .  S
O685        C686   1.331       .  A
C686        C687   1.391       .  A
C687        H691   1.083       .  S
C692        C697   1.380       .  A
C692        C693   1.398       .  A
C692        O698   1.314       .  A
C693        C694   1.398       .  A
C693        H704   1.083       .  S
C694        C703   1.354       .  A
C694        C695   1.380       .  A
C695        C696   1.410       .  A
C695        O701   1.326       .  A
C696        C697   1.409       .  A
C696        H705   1.082       .  S
C697        C700   1.370       .  A
O698        C699   1.329       .  A
C699        C700   1.394       .  A
C700        H706   1.082       .  S
O701        C702   1.334       .  A
C702        C703   1.389       .  A
C703        H707   1.083       .  S
C708        C713   1.381       .  A
C708        C709   1.401       .  A
C708        O714   1.320   1_455  A
C709        C710   1.402       .  A
C709        H720   1.082       .  S
C710        C719   1.356       .  A
C710        C711   1.380       .  A
C711        C712   1.406       .  A
C711        O717   1.324       .  A
C712        C713   1.407       .  A
C712        H721   1.082       .  S
C713        C716   1.363   1_455  A
O714        C715   1.330       .  A
C715        C716   1.395       .  A
C716        H722   1.082       .  S
O717        C718   1.332       .  A
C718        C719   1.390       .  A
C719        H723   1.082       .  S
C724        C729   1.380       .  A
C724        C725   1.400       .  A
C724        O730   1.313       .  A
C725        C726   1.398       .  A
C725        H736   1.082       .  S
C726        C735   1.360       .  A
C726        C727   1.380       .  A
C727        C728   1.407       .  A
C727        O733   1.319       .  A
C728        C729   1.405       .  A
C728        H737   1.082       .  S
C729        C732   1.368       .  A
O730        C731   1.328       .  A
C731        C732   1.393       .  A
C732        H738   1.082       .  S
O733        C734   1.332       .  A
C734        C735   1.390       .  A
C735        H739   1.083       .  S
C740        C745   1.380       .  A
C740        C741   1.401       .  A
C740        O746   1.317       .  A
C741        C742   1.400       .  A
C741        H752   1.082       .  S
C742        C751   1.358       .  A
C742        C743   1.380       .  A
C743        C744   1.410       .  A
C743        O749   1.325       .  A
C744        C745   1.410       .  A
C744        H753   1.082       .  S
C745        C748   1.370       .  A
O746        C747   1.329       .  A
C747        C748   1.396       .  A
C748        H754   1.082       .  S
O749        C750   1.333       .  A
C750        C751   1.390       .  A
C751        H755   1.082       .  S
C756        C761   1.381       .  A
C756        C757   1.404       .  A
C756        O762   1.321       .  A
C757        C758   1.404       .  A
C757        H768   1.082       .  S
C758        C767   1.362       .  A
C758        C759   1.381       .  A
C759        C760   1.401       .  A
C759        O765   1.318       .  A
C760        C761   1.401       .  A
C760        H769   1.083       .  S
C761        C764   1.357       .  A
O762        C763   1.330       .  A
C763        C764   1.390       .  A
C764        H770   1.083       .  S
O765        C766   1.330       .  A
C766        C767   1.392       .  A
C767        H771   1.083       .  S
C772        C777   1.381       .  A
C772        C773   1.399       .  A
C772        O778   1.316       .  A
C773        C774   1.399       .  A
C773        H784   1.082       .  S
C774        C783   1.357       .  A
C774        C775   1.380       .  A
C775        C776   1.408       .  A
C775        O781   1.323       .  A
C776        C777   1.407       .  A
C776        H785   1.082       .  S
C777        C780   1.366       .  A
O778        C779   1.328       .  A
C779        C780   1.394       .  A
C780        H786   1.082       .  S
O781        C782   1.334       .  A
C782        C783   1.390       .  A
C783        H787   1.083       .  S
C788        C793   1.380       .  A
C788        C789   1.404       .  A
C788        O794   1.317       .  A
C789        C790   1.403       .  A
C789        H800   1.082       .  S
C790        C799   1.365       .  A
C790        C791   1.380       .  A
C791        C792   1.404       .  A
C791        O797   1.317       .  A
C792        C793   1.402       .  A
C792        H801   1.082       .  S
C793        C796   1.363       .  A
O794        C795   1.330       .  A
C795        C796   1.390       .  A
C796        H802   1.081       .  S
O797        C798   1.331       .  A
C798        C799   1.392       .  A
C799        H803   1.083       .  S
C804        C809   1.380       .  A
C804        C805   1.401       .  A
C804        O810   1.314       .  A
C805        C806   1.399       .  A
C805        H816   1.083       .  S
C806        C815   1.361       .  A
C806        C807   1.380       .  A
C807        C808   1.406       .  A
C807        O813   1.319       .  A
C808        C809   1.404       .  A
C808        H817   1.083       .  S
C809        C812   1.367       .  A
O810        C811   1.330       .  A
C811        C812   1.392       .  A
C812        H818   1.082       .  S
O813        C814   1.332       .  A
C814        C815   1.391       .  A
C815        H819   1.083       .  S
C820        C825   1.380       .  A
C820        C821   1.411       .  A
C820        O826   1.326       .  A
C821        C822   1.410       .  A
C821        H832   1.082       .  S
C822        C831   1.372       .  A
C822        C823   1.380       .  A
C823        C824   1.398       .  A
C823        O829   1.312       .  A
C824        C825   1.397       .  A
C824        H833   1.082       .  S
C825        C828   1.355       .  A
O826        C827   1.334       .  A
C827        C828   1.389       .  A
C828        H834   1.083       .  S
O829        C830   1.328       .  A
C830        C831   1.394       .  A
C831        H835   1.082       .  S
C836        C841   1.381       .  A
C836        C837   1.403       .  A
C836        O842   1.321       .  A
C837        C838   1.403       .  A
C837        H848   1.083       .  S
C838        C847   1.359       .  A
C838        C839   1.380       .  A
C839        C840   1.406       .  A
C839        O845   1.323       .  A
C840        C841   1.407       .  A
C840        H849   1.083       .  S
C841        C844   1.364       .  A
O842        C843   1.331       .  A
C843        C844   1.395       .  A
C844        H850   1.083       .  S
O845        C846   1.332       .  A
C846        C847   1.391       .  A
C847        H851   1.083       .  S
C852        C857   1.379       .  A
C852        C853   1.411       .  A
C852        O858   1.325       .  A
C853        C854   1.410       .  A
C853        H864   1.082       .  S
C854        C863   1.372       .  A
C854        C855   1.380       .  A
C855        C856   1.400       .  A
C855        O861   1.314       .  A
C856        C857   1.398       .  A
C856        H865   1.082       .  S
C857        C860   1.358       .  A
O858        C859   1.335       .  A
C859        C860   1.390       .  A
C860        H866   1.082       .  S
O861        C862   1.329       .  A
C862        C863   1.395       .  A
C863        H867   1.082       .  S
C868        C873   1.380       .  A
C868        C869   1.405       .  A
C868        O874   1.321       .  A
C869        C870   1.405       .  A
C869        H880   1.083       .  S
C870        C879   1.362       .  A
C870        C871   1.379       .  A
C871        C872   1.405       .  A
C871        O877   1.322       .  A
C872        C873   1.405       .  A
C872        H881   1.083       .  S
C873        C876   1.363       .  A
O874        C875   1.332       .  A
C875        C876   1.393       .  A
C876        H882   1.083       .  S
O877        C878   1.333       .  A
C878        C879   1.393       .  A
C879        H883   1.083       .  S
C884        C889   1.380       .  A
C884        C885   1.404       .  A
C884        O890   1.322       .  A
C885        C886   1.405       .  A
C885        H896   1.082       .  S
C886        C895   1.361       .  A
C886        C887   1.381       .  A
C887        C888   1.402       .  A
C887        O893   1.320       .  A
C888        C889   1.403       .  A
C888        H897   1.082       .  S
C889        C892   1.359       .  A
O890        C891   1.332       .  A
C891        C892   1.392       .  A
C892        H898   1.083       .  S
O893        C894   1.330       .  A
C894        C895   1.393       .  A
C895        H899   1.083       .  S
C900        C905   1.381       .  A
C900        C901   1.396   1_565  A
C900        O906   1.314       .  A
C901        C902   1.396   1_545  A
C901        H912   1.082       .  S
C902        C911   1.352   1_565  A
C902        C903   1.380       .  A
C903        C904   1.410       .  A
C903        O909   1.325       .  A
C904        C905   1.409       .  A
C904        H913   1.082       .  S
C905        C908   1.368       .  A
O906        C907   1.326       .  A
C907        C908   1.393       .  A
C908        H914   1.082       .  S
O909        C910   1.335       .  A
C910        C911   1.389   1_565  A
C911        H915   1.083       .  S
