geometry optimzed in LAMMPS
_audit_creation_date              2020-11-30 
_audit_creation_method            'lammps2cif' 
_symmetry_space_group_name_H-M    'P1' 
_symmetry_Int_Tables_number       1 
_symmetry_cell_setting            triclinic 
loop_ 
_symmetry_equiv_pos_as_xyz 
  x,y,z 
_cell_length_a                    35.22789858 
_cell_length_b                    31.544061557822832 
_cell_length_c                    32.08312209864807 
_cell_angle_alpha                 92.26173742950262 
_cell_angle_beta                  89.64785406181711 
_cell_angle_gamma                 119.80361866112945 
loop_ 
_atom_site_label 
_atom_site_type_symbol 
_atom_site_fract_x 
_atom_site_fract_y 
_atom_site_fract_z 
_atom_site_charge 
N1          N  0.26939019  0.03488249  0.10023465    -0.02800
C2          C  0.27067648  0.99761853  0.11927502    -0.00300
C3          C  0.23435368  0.97196293  0.14321692    -0.23100
C4          C  0.20689983  0.98945359  0.13491099    -0.23300
C5          C  0.22648480  0.02359528  0.10437894    -0.00400
H6          H  0.22538677  0.93849164  0.15877167     0.13400
H7          H  0.17268120  0.97121117  0.14310813     0.13500
N8          N  0.52443639  0.26083631  0.28229964    -0.02800
C9          C  0.50707197  0.28320261  0.30626637    -0.00300
C10         C  0.50984099  0.27730995  0.34796065    -0.23100
C11         C  0.53311386  0.25365440  0.35074477    -0.23300
C12         C  0.54555951  0.24794795  0.31052056    -0.00400
H13         H  0.50121619  0.29413592  0.37356322     0.13400
H14         H  0.54696071  0.25066998  0.37971454     0.13500
N15         N  0.03823014  0.16588485  0.98169044    -0.02800
C16         C  0.05728310  0.20051834  0.95299994    -0.00300
C17         C  0.02581822  0.20836619  0.93494483    -0.23100
C18         C  0.98784550  0.18135141  0.95602673    -0.23300
C19         C  0.99725641  0.15894758  0.98742648    -0.00400
H20         H  0.03142505  0.23782330  0.91510973     0.13400
H21         H  0.96052523  0.18796202  0.95535951     0.13500
N22         N  0.79089368  0.13917849  0.24835985    -0.02800
C23         C  0.76632610  0.09187561  0.25997137    -0.00300
C24         C  0.78634905  0.06495442  0.24996543    -0.23100
C25         C  0.82443894  0.09567631  0.23131420    -0.23300
C26         C  0.82709437  0.14095823  0.23050928    -0.00400
H27         H  0.77323538  0.02619203  0.25368060     0.13400
H28         H  0.84706320  0.08544061  0.21761252     0.13500
N29         N  0.92983602  0.49499568  0.19789152    -0.02800
C30         C  0.97277894  0.50715035  0.19678946    -0.00300
C31         C  0.98108926  0.47794144  0.22144161    -0.23100
C32         C  0.94233265  0.44572380  0.23820598    -0.23300
C33         C  0.91107440  0.45613634  0.22370665    -0.00400
H34         H  0.01178838  0.47832116  0.22463257     0.13400
H35         H  0.93707082  0.41628769  0.25796191     0.13500
N36         N  0.91876851  0.78188850  0.08473844    -0.02800
C37         C  0.88764663  0.78526262  0.10785319    -0.00300
C38         C  0.90139956  0.83249064  0.12196483    -0.23100
C39         C  0.94172145  0.86051879  0.10596218    -0.23300
C40         C  0.95145333  0.82972308  0.08230249    -0.00400
H41         H  0.88177993  0.84583742  0.13751191     0.13400
H42         H  0.95944971  0.90010993  0.10670502     0.13500
Zr43       Zr  0.48584693  0.66587709  0.17875750     2.17500
O44         O  0.51312694  0.67374587  0.24990522    -0.50700
O45         O  0.55676538  0.68276545  0.15286644    -0.73900
O46         O  0.48133815  0.58946499  0.19973469    -0.80700
O47         O  0.50048253  0.79375017  0.18951281    -0.82400
O48         O  0.42912741  0.52642013  0.15974994    -0.78100
O49         O  0.52140498  0.74436136  0.21922840    -0.89700
O50         O  0.55566809  0.68401353  0.08203124    -0.75700
O51         O  0.47062205  0.61833130  0.11500457    -0.85200
O52         O  0.50209718  0.72024607  0.12311322    -0.84800
O53         O  0.40995228  0.60341007  0.18130915    -0.71600
O54         O  0.43721707  0.69802688  0.18797903    -0.83700
Zr55       Zr  0.36051048  0.64344753  0.07054276     2.26400
Zr56       Zr  0.39471600  0.55803272  0.11576513     2.06300
Zr57       Zr  0.45254847  0.75068615  0.13105650     2.10000
Zr58       Zr  0.48512216  0.67199837  0.05974405     1.78800
O59         O  0.44581935  0.81691251  0.16509417    -0.92500
O60         O  0.49387887  0.60905153  0.02167661    -0.40300
O61         O  0.43653825  0.70493966  0.06623666    -0.77000
O62         O  0.40912382  0.61116674  0.05949246    -0.95700
O63         O  0.34540245  0.58859723  0.12538083    -0.89000
O64         O  0.37723664  0.69027370  0.13469665    -0.91800
C65         C  0.57418069  0.68643081  0.11701277     1.01900
C66         C  0.52158003  0.78519843  0.21713086     1.14900
C67         C  0.45927486  0.54396572  0.18792902     1.05700
O68         O  0.41795376  0.51224803  0.07017472    -0.94000
O69         O  0.33663457  0.51211148  0.06445436    -0.89700
O70         O  0.31671166  0.56294196  0.03557755    -0.82900
C71         C  0.31354670  0.52075620  0.03897133     1.12300
O72         O  0.37185061  0.63517760  0.26402540    -0.95900
Zr73       Zr  0.36167091  0.63584095  0.18898124     1.88900
O74         O  0.28786228  0.62092470  0.09511520    -0.72600
O75         O  0.33973806  0.48515896  0.14926943    -0.51800
O76         O  0.31087921  0.55426438  0.21237758    -0.96500
O77         O  0.35065462  0.69443573  0.23171608    -0.53700
O78         O  0.29147006  0.62448828  0.16572781    -0.73100
C79         C  0.27113116  0.61907969  0.13109579     0.99200
O80         O  0.34920606  0.65123838  0.99696147    -0.61900
O81         O  0.51053701  0.81073756  0.08876740    -0.56700
O82         O  0.35254331  0.71549271  0.06193099    -0.93400
O83         O  0.41043668  0.77970416  0.09571931    -0.91800
O84         O  0.53381724  0.75015207  0.02941257    -0.92200
O85         O  0.47949931  0.67145436  0.98409338    -0.91000
C86         C  0.37478053  0.76069249  0.07445502     1.18100
H87         H  0.53211029  0.74653354  0.12442019     0.34000
H88         H  0.40228768  0.59279120  0.03316426     0.44900
H89         H  0.35945577  0.70539511  0.13898860     0.38400
H90         H  0.40525490  0.58251655  0.20425463     0.34900
H91         H  0.52462846  0.62583316  0.01239696     0.26700
H92         H  0.31193737  0.48527925  0.14534760     0.32600
H93         H  0.32932060  0.54272354  0.22541271     0.38500
H94         H  0.55945282  0.76632816  0.04862875     0.33000
H95         H  0.49660573  0.80671794  0.06108077     0.31900
H96         H  0.41696067  0.80050490  0.17868461     0.33500
H97         H  0.32561785  0.69536640  0.21891356     0.32500
H98         H  0.44880422  0.66275893  0.97850761     0.36500
H99         H  0.37026777  0.68572714  0.99117074     0.29200
H100        H  0.53166756  0.65829161  0.24954680     0.33500
H101        H  0.34210191  0.61998728  0.27580271     0.36300
H102        H  0.51523541  0.84263683  0.10018945     0.28900
H103        H  0.36097543  0.63244043  0.98175734     0.41800
H104        H  0.39945608  0.47792372  0.07812669     0.31900
H105        H  0.49304156  0.58710488  0.04330293     0.39500
H106        H  0.37627848  0.72659047  0.22599271     0.31300
H107        H  0.33659500  0.45746804  0.13106560     0.31400
H108        H  0.48703828  0.65202433  0.26603467     0.31700
Zr109      Zr  0.80405486  0.29840052  0.25968564     2.17500
O110        O  0.81366030  0.28465026  0.18613678    -0.50700
O111        O  0.87649830  0.32009009  0.28676026    -0.73900
O112        O  0.85349077  0.37626528  0.22838655    -0.80700
O113        O  0.75152030  0.16745631  0.28773363    -0.82400
O114        O  0.84308424  0.43742904  0.25542356    -0.78100
O115        O  0.80528910  0.22136924  0.24677286    -0.89700
O116        O  0.88541313  0.34159531  0.35578803    -0.75700
O117        O  0.82360001  0.36508936  0.30832206    -0.85200
O118        O  0.79330915  0.26469676  0.32678117    -0.84800
O119        O  0.75573386  0.32959089  0.24379703    -0.71600
O120        O  0.72754466  0.23712632  0.26203853    -0.83700
Zr121      Zr  0.68999882  0.30266732  0.36455635     2.26400
Zr122      Zr  0.77477669  0.39557494  0.29424222     2.06300
Zr123      Zr  0.71717342  0.20462356  0.33015744     2.10000
Zr124      Zr  0.81422772  0.33187262  0.37524807     1.78800
O125        O  0.65439838  0.13117446  0.30026422    -0.92500
O126        O  0.86472873  0.41674861  0.39664628    -0.40300
O127        O  0.73810746  0.27166234  0.37959567    -0.77000
O128        O  0.76630165  0.36380328  0.36281116    -0.95700
O129        O  0.69856514  0.33618527  0.29767766    -0.89000
O130        O  0.66886863  0.23532111  0.31629817    -0.91800
C131        C  0.89940256  0.33391453  0.32088436     1.01900
C132        C  0.78212328  0.17824700  0.26104137     1.14900
C133        C  0.86491164  0.42180694  0.23403201     1.05700
O134        O  0.82015464  0.48339860  0.30683908    -0.94000
O135        O  0.75047729  0.43753819  0.34425132    -0.89700
O136        O  0.69441080  0.38108697  0.38139227    -0.82900
C137        C  0.72143782  0.42554403  0.37278863     1.12300
O138        O  0.68798754  0.25329216  0.17578918    -0.95900
Zr139      Zr  0.67921464  0.26899296  0.24913989     1.88900
O140        O  0.61574411  0.27406584  0.33926228    -0.72600
O141        O  0.74257832  0.41670610  0.23747564    -0.51800
O142        O  0.66480783  0.32133758  0.20585904    -0.96500
O143        O  0.62716237  0.18652977  0.22293827    -0.53700
O144        O  0.60650427  0.25464524  0.26996026    -0.73100
C145        C  0.59191847  0.25889842  0.30577100     0.99200
O146        O  0.67093864  0.31243768  0.43624589    -0.61900
O147        O  0.73551614  0.15751557  0.37610965    -0.56700
O148        O  0.65780349  0.23536256  0.41102112    -0.93400
O149        O  0.66882869  0.17269362  0.39065249    -0.91800
O150        O  0.82578757  0.27955880  0.42124094    -0.92200
O151        O  0.81061291  0.34993307  0.44917176    -0.91000
C152        C  0.65280927  0.19260918  0.41552925     1.18100
H153        H  0.81120650  0.24982593  0.33070340     0.34000
H154        H  0.77327509  0.38886798  0.38442045     0.44900
H155        H  0.63896780  0.20995655  0.32014171     0.38400
H156        H  0.76144828  0.34201927  0.21605506     0.34900
H157        H  0.89294024  0.41814176  0.40225341     0.26700
H158        H  0.72234725  0.42584967  0.25138747     0.32600
H159        H  0.65235741  0.33648146  0.22502799     0.38500
H160        H  0.81121493  0.24677683  0.40702096     0.33000
H161        H  0.71452384  0.12295197  0.36814390     0.31900
H162        H  0.65425452  0.10382854  0.31453224     0.33500
H163        H  0.60262214  0.18916779  0.21093133     0.32500
H164        H  0.77922169  0.33822062  0.45407159     0.36500
H165        H  0.69631384  0.34253878  0.44827393     0.29200
H166        H  0.84558107  0.29833652  0.18293642     0.33500
H167        H  0.71326734  0.24768418  0.17541885     0.36300
H168        H  0.76424424  0.16257850  0.36671951     0.28900
H169        H  0.64689330  0.31997608  0.43455505     0.41800
H170        H  0.83862797  0.48697445  0.33135675     0.31900
H171        H  0.86967878  0.43523956  0.37104629     0.39500
H172        H  0.61493867  0.16745926  0.24817143     0.31300
H173        H  0.76677004  0.44794992  0.22777548     0.31400
H174        H  0.80679720  0.30691605  0.17113281     0.31700
N175        N  0.57933835  0.79831309  0.49757178    -0.02800
C176        C  0.60903628  0.79025848  0.47586130    -0.00300
C177        C  0.58942822  0.74278104  0.45975075    -0.23100
C178        C  0.54780502  0.71940791  0.47437018    -0.23300
C179        C  0.54254826  0.75319735  0.49867438    -0.00400
H180        H  0.60586096  0.72489219  0.44518059     0.13400
H181        H  0.52596482  0.68024298  0.47268465     0.13500
N182        N  0.59142154  0.12037930  0.45038611    -0.02800
C183        C  0.56112363  0.12211305  0.47594804    -0.00300
C184        C  0.57856364  0.16660389  0.49755643    -0.23100
C185        C  0.61986839  0.19461787  0.48310175    -0.23300
C186        C  0.62640345  0.16682640  0.45229423    -0.00400
H187        H  0.56088799  0.17975222  0.51677780     0.13400
H188        H  0.63997996  0.23360257  0.48945473     0.13500
N189        N  0.41741940  0.49967150  0.51618549    -0.02800
C190        C  0.37954864  0.45659373  0.50828046    -0.00300
C191        C  0.38020787  0.43757189  0.46897323    -0.23100
C192        C  0.41919111  0.46919615  0.45201686    -0.23300
C193        C  0.44285203  0.50579015  0.48196809    -0.00400
H194        H  0.35673320  0.40208595  0.45544928     0.13400
H195        H  0.43198436  0.46130304  0.42383099     0.13500
N196        N  0.72418181  0.46393213  0.40099684    -0.02800
C197        C  0.76284398  0.48891268  0.42204213    -0.00300
C198        C  0.75596971  0.48529721  0.46462522    -0.23100
C199        C  0.71165055  0.46173468  0.46976410    -0.23300
C200        C  0.69313154  0.45458273  0.43033530    -0.00400
H201        H  0.77976119  0.50517830  0.48931709     0.13400
H202        H  0.69608190  0.46209397  0.49888517     0.13500
N203        N  0.17710300  0.56088511  0.57594665    -0.02800
C204        C  0.14810934  0.56521852  0.60177800    -0.00300
C205        C  0.14687073  0.54685321  0.64007345    -0.23100
C206        C  0.17852563  0.53407592  0.63993073    -0.23300
C207        C  0.19978121  0.54721217  0.60203289    -0.00400
H208        H  0.12883883  0.54856986  0.66678784     0.13400
H209        H  0.19063169  0.52581583  0.66764146     0.13500
N210        N  0.97034168  0.34248277  0.35139471    -0.02800
C211        C  0.99361771  0.32093588  0.33768786    -0.00300
C212        C  0.98282452  0.30321012  0.29714737    -0.23100
C213        C  0.95084214  0.31276556  0.28505104    -0.23300
C214        C  0.94264105  0.33587506  0.31879238    -0.00400
H215        H  0.99447563  0.28210415  0.27951534     0.13400
H216        H  0.93231819  0.29943180  0.25604260     0.13500
Zr217      Zr  0.02293244  0.89215870  0.53298534     2.17500
O218        O  0.97928998  0.84256469  0.58987799    -0.50700
O219        O  0.98753272  0.83117041  0.47589829    -0.73900
O220        O  0.95039194  0.88638336  0.53325220    -0.80700
O221        O  0.11203078  0.86186089  0.55845914    -0.82400
O222        O  0.95950895  0.95699315  0.50852492    -0.78100
O223        O  0.03805508  0.82966833  0.55775439    -0.89700
O224        O  0.02539959  0.85688119  0.41576386    -0.75700
O225        O  0.02363350  0.93371424  0.47256393    -0.85200
O226        O  0.08062160  0.89756576  0.49020754    -0.84800
O227        O  0.03641905  0.97085726  0.55996624    -0.71600
O228        O  0.08912100  0.93757999  0.57444176    -0.83700
Zr229      Zr  0.16185193  0.06347639  0.49373479     2.26400
Zr230      Zr  0.03766114  0.01205274  0.49863118     2.06300
Zr231      Zr  0.14635629  0.94277242  0.53079517     2.10000
Zr232      Zr  0.08180914  0.94004145  0.43018544     1.78800
O233        O  0.18612254  0.94509981  0.59346637    -0.92500
O234        O  0.03505083  0.94573416  0.37757975    -0.40300
O235        O  0.14884264  0.98467541  0.46923614    -0.77000
O236        O  0.09507736  0.01900502  0.45354397    -0.95700
O237        O  0.10469408  0.05858156  0.53707838    -0.89000
O238        O  0.16183373  0.02258886  0.55470387    -0.91800
C239        C  0.99422055  0.82513560  0.43715267     1.01900
C240        C  0.07291689  0.82730273  0.56446840     1.14900
C241        C  0.93505589  0.91386810  0.52198959     1.05700
O242        O  0.99443824  0.01613064  0.44161741    -0.94000
O243        O  0.07129423  0.09241381  0.47109036    -0.89700
O244        O  0.14532636  0.12503239  0.46779620    -0.82900
C245        C  0.10982746  0.12685565  0.46312221     1.12300
O246        O  0.06534474  0.97952728  0.66051634    -0.95900
Zr247      Zr  0.10482799  0.01819086  0.59775767     1.88900
O248        O  0.19730476  0.12753136  0.54732158    -0.72600
O249        O  0.01974796  0.06032072  0.54732584    -0.51800
O250        O  0.06681959  0.05853368  0.62788460    -0.96500
O251        O  0.15124062  0.01451756  0.65198880    -0.53700
O252        O  0.16099208  0.10454533  0.60847117    -0.73100
C253        C  0.19104111  0.13607244  0.58544222     0.99200
O254        O  0.20561688  0.11030183  0.43566476    -0.61900
O255        O  0.17207844  0.89722274  0.48740846    -0.56700
O256        O  0.23234458  0.06403421  0.49023959    -0.93400
O257        O  0.22310578  0.99336572  0.51625564    -0.91800
O258        O  0.12058469  0.90106205  0.39906610    -0.92200
O259        O  0.12029443  0.97729930  0.36677763    -0.91000
C260        C  0.24658465  0.03514659  0.50049838     1.18100
H261        H  0.07611196  0.86551727  0.48224454     0.34000
H262        H  0.09658420  0.03701088  0.42934419     0.44900
H263        H  0.18986152  0.03980488  0.56899982     0.38400
H264        H  0.01271805  0.96693667  0.57770244     0.34900
H265        H  0.00491767  0.92600820  0.38796334     0.26700
H266        H  0.00471093  0.07303369  0.53009400     0.32600
H267        H  0.07554311  0.08713529  0.61057188     0.38500
H268        H  0.15161319  0.92276768  0.40742294     0.33000
H269        H  0.18923649  0.88920492  0.50667515     0.31900
H270        H  0.19573259  0.92085721  0.58754718     0.33500
H271        H  0.18167846  0.03536382  0.64280934     0.32500
H272        H  0.14511218  0.00926622  0.37646300     0.36500
H273        H  0.23529049  0.13244791  0.44738657     0.29200
H274        H  0.95265514  0.81537250  0.57638921     0.33500
H275        H  0.07753612  0.00542199  0.68301294     0.36300
H276        H  0.14569673  0.86540884  0.48033013     0.28900
H277        H  0.20883928  0.08635868  0.41727635     0.41800
H278        H  0.98116868  0.98349543  0.42715802     0.31900
H279        H  0.04101683  0.97988642  0.38018729     0.39500
H280        H  0.14628775  0.98075350  0.64934105     0.31300
H281        H  0.99683702  0.03630014  0.56529770     0.31400
H282        H  0.96909725  0.86275729  0.60531593     0.31700
N283        N  0.60000976  0.68279283  0.73292813    -0.02800
C284        C  0.59015669  0.64144234  0.75344460    -0.00300
C285        C  0.55030725  0.62304076  0.77269743    -0.23100
C286        C  0.53276561  0.65069989  0.76080547    -0.23300
C287        C  0.56218027  0.68499093  0.73434636    -0.00400
H288        H  0.53246487  0.58801916  0.78699997     0.13400
H289        H  0.49878846  0.64065772  0.76445308     0.13500
N290        N  0.89922561  0.94901830  0.83749696    -0.02800
C291        C  0.90156874  0.98863883  0.81978275    -0.00300
C292        C  0.93958396  0.01431059  0.79817816    -0.23100
C293        C  0.96373503  0.99245276  0.80556520    -0.23300
C294        C  0.94128163  0.95731032  0.83494318    -0.00400
H295        H  0.95092523  0.04884572  0.78356174     0.13400
H296        H  0.99816477  0.00874394  0.79848868     0.13500
N297        N  0.38442770  0.78980904  0.77046664    -0.02800
C298        C  0.42104736  0.83323121  0.78089144    -0.00300
C299        C  0.41685154  0.85024273  0.81998475    -0.23100
C300        C  0.37680100  0.81705096  0.83409347    -0.23300
C301        C  0.35635443  0.78125727  0.80273795    -0.00400
H302        H  0.43886292  0.88533216  0.83513064     0.13400
H303        H  0.36144319  0.82275370  0.86144052     0.13500
N304        N  0.10273979  0.80460549  0.95786587    -0.02800
C305        C  0.08121530  0.76978826  0.98611300    -0.00300
C306        C  0.11178690  0.76820232  0.01195950    -0.23100
C307        C  0.15122350  0.79297858  0.99220052    -0.23300
C308        C  0.14401614  0.81244682  0.95722714    -0.00400
H309        H  0.10476782  0.74121901  0.03504691     0.13400
H310        H  0.17832783  0.78704011  0.99758017     0.13500
N311        N  0.25226854  0.17186508  0.84582552    -0.02800
C312        C  0.27566999  0.15710436  0.82105997    -0.00300
C313        C  0.25166293  0.10811660  0.80991603    -0.23100
C314        C  0.21224782  0.09098080  0.82877868    -0.23300
C315        C  0.21334745  0.12969499  0.85155947    -0.00400
H316        H  0.26309689  0.08638183  0.79292769     0.13400
H317        H  0.18741089  0.05289344  0.82996869     0.13500
N318        N  0.26092817  0.51534794  0.77439720    -0.02800
C319        C  0.22887565  0.52394633  0.78890202    -0.00300
C320        C  0.22342195  0.51551572  0.83104046    -0.23100
C321        C  0.24902686  0.49623138  0.84171631    -0.23300
C322        C  0.27089866  0.49458183  0.80622019    -0.00400
H323        H  0.19717183  0.51396705  0.84986658     0.13400
H324        H  0.24700092  0.47906823  0.87081839     0.13500
Zr325      Zr  0.81687514  0.34341865  0.81478891     2.17500
O326        O  0.83454053  0.35504429  0.88920807    -0.50700
O327        O  0.89006734  0.37479483  0.78670792    -0.73900
O328        O  0.83386761  0.28174511  0.83761750    -0.80700
O329        O  0.82063121  0.46606456  0.81043473    -0.82400
O330        O  0.78119981  0.20999204  0.80752904    -0.78100
O331        O  0.85158445  0.42711574  0.84246702    -0.89700
O332        O  0.88555033  0.37924207  0.71688665    -0.75700
O333        O  0.80530381  0.29102404  0.75509766    -0.85200
O334        O  0.82054831  0.38864270  0.75569355    -0.84800
O335        O  0.74534162  0.27397093  0.82404015    -0.71600
O336        O  0.76008678  0.36393108  0.82350232    -0.83700
Zr337      Zr  0.67905724  0.28631745  0.71144772     2.26400
Zr338      Zr  0.73379061  0.22321234  0.76268736     2.06300
Zr339      Zr  0.76377637  0.40786354  0.76325416     2.10000
Zr340      Zr  0.80832625  0.33596496  0.69634325     1.78800
O341        O  0.73649390  0.45254229  0.80551534    -0.92500
O342        O  0.83697043  0.28406527  0.66981819    -0.40300
O343        O  0.75090790  0.35600277  0.70239189    -0.77000
O344        O  0.73624180  0.26584753  0.70180438    -0.95700
O345        O  0.67649644  0.24225299  0.77080163    -0.89000
O346        O  0.69270127  0.33970372  0.77108693    -0.91800
C347        C  0.90777338  0.38744164  0.75082275     1.01900
C348        C  0.84777957  0.46471947  0.83596839     1.14900
C349        C  0.81502901  0.23521873  0.83090110     1.05700
O350        O  0.75977004  0.18127398  0.71524862    -0.94000
O351        O  0.66986075  0.16148698  0.72615212    -0.89700
O352        O  0.63227523  0.19686358  0.70123908    -0.82900
C353        C  0.63643607  0.15943494  0.70874784     1.12300
O354        O  0.69865761  0.29492364  0.90515702    -0.95900
Zr355      Zr  0.68826767  0.29458198  0.82999653     1.88900
O356        O  0.60858456  0.26985827  0.73824186    -0.72600
O357        O  0.69089566  0.14961632  0.80155616    -0.51800
O358        O  0.64253087  0.21301900  0.85596551    -0.96500
O359        O  0.67880219  0.35455549  0.87195327    -0.53700
O360        O  0.61455170  0.27629610  0.80905671    -0.73100
C361        C  0.59308704  0.26934210  0.77467136     0.99200
O362        O  0.66151681  0.27041817  0.63711312    -0.61900
O363        O  0.80921045  0.47696707  0.72044752    -0.56700
O364        O  0.66408595  0.34995699  0.68806438    -0.93400
O365        O  0.71632467  0.42149405  0.71911402    -0.91800
O366        O  0.84372315  0.40878167  0.65536526    -0.92200
O367        O  0.79260612  0.31790511  0.62190538    -0.91000
C368        C  0.68218737  0.39644992  0.69600633     1.18100
H369        H  0.84814516  0.41871219  0.75448506     0.34000
H370        H  0.72978028  0.24436607  0.67733404     0.44900
H371        H  0.67210083  0.35143026  0.77309366     0.38400
H372        H  0.74539552  0.25718228  0.84856341     0.34900
H373        H  0.85023234  0.27795052  0.69434474     0.26700
H374        H  0.70380780  0.12854967  0.79501890     0.32600
H375        H  0.66334886  0.20375653  0.86730846     0.38500
H376        H  0.82356754  0.42215973  0.65635028     0.33000
H377        H  0.80371215  0.50336346  0.73088187     0.31900
H378        H  0.74920480  0.48495782  0.79307570     0.33500
H379        H  0.64780994  0.33704746  0.88043344     0.32500
H380        H  0.77047262  0.32760928  0.61603091     0.36500
H381        H  0.67569669  0.25158353  0.62726958     0.29200
H382        H  0.86270309  0.35543560  0.89184204     0.33500
H383        H  0.66901020  0.28035968  0.91712050     0.36300
H384        H  0.83971262  0.48803208  0.72928118     0.28900
H385        H  0.62977197  0.24656540  0.63554698     0.41800
H386        H  0.76398209  0.15881727  0.73286569     0.31900
H387        H  0.81077917  0.25213336  0.66264771     0.39500
H388        H  0.68052188  0.37834666  0.85179220     0.31300
H389        H  0.69853525  0.16003636  0.83124420     0.31400
H390        H  0.81263442  0.32418996  0.90159048     0.31700
Zr391      Zr  0.09076003  0.93549873  0.02528322     2.17500
O392        O  0.10279067  0.90476857  0.08964596    -0.50700
O393        O  0.09782799  0.86687821  0.99542633    -0.73900
O394        O  0.02282613  0.87455355  0.05694345    -0.80700
O395        O  0.21002334  0.05286573  0.04157120    -0.82400
O396        O  0.96586193  0.86095727  0.01455008    -0.78100
O397        O  0.15892531  0.98050528  0.06678470    -0.89700
O398        O  0.10094113  0.86768285  0.92492355    -0.75700
O399        O  0.05115952  0.90349349  0.96130633    -0.88200
O400        O  0.14321075  0.97396454  0.97235464    -0.84800
O401        O  0.03431179  0.95780579  0.02697512    -0.71600
O402        O  0.11878893  0.02206334  0.03596055    -0.83700
Zr403      Zr  0.07360865  0.04971513  0.91811245     2.26400
Zr404      Zr  0.99451944  0.92480667  0.96202427     2.06300
Zr405      Zr  0.17067402  0.06089121  0.98178072     2.10000
Zr406      Zr  0.10311175  0.94249718  0.90829408     1.78800
O407        O  0.20801865  0.14068900  0.01839357    -0.92500
O408        O  0.05269233  0.87920015  0.85856390    -0.40300
O409        O  0.12999745  0.02817512  0.91790947    -0.77000
O410        O  0.04635011  0.96286128  0.90721562    -0.95700
O411        O  0.02178970  0.01141278  0.97148870    -0.89000
O412        O  0.11432267  0.08299648  0.98163581    -0.91800
C413        C  0.09957387  0.84828272  0.95942767     1.01900
C414        C  0.19708653  0.01944515  0.06852010     1.14900
C415        C  0.98181148  0.85290375  0.04757676     1.05700
O416        O  0.94831887  0.84531459  0.92719049    -0.94000
O417        O  0.95580429  0.93048231  0.90026523    -0.89700
O418        O  0.00593880  0.00399392  0.87607771    -0.82900
C419        C  0.96871082  0.96379804  0.87315374     1.12300
O420        O  0.05946418  0.02867312  0.10948116    -0.95900
Zr421      Zr  0.06251276  0.04394240  0.03524737     1.88900
O422        O  0.05890884  0.11347194  0.94748287    -0.72600
O423        O  0.93423607  0.93238679  0.99158798    -0.51800
O424        O  0.98986573  0.01865565  0.06234385    -0.96500
O425        O  0.11364806  0.11763445  0.07551842    -0.53700
O426        O  0.04401372  0.10524959  0.01639310    -0.73100
C427        C  0.04751102  0.12608026  0.98204241     0.99200
O428        O  0.07382734  0.09790918  0.86035624    -0.61900
O429        O  0.23723135  0.06435420  0.95576901    -0.56700
O430        O  0.14259250  0.09488058  0.88006655    -0.93400
O431        O  0.20063562  0.11700915  0.92381795    -0.91800
O432        O  0.17638119  0.95782144  0.89180319    -0.92200
O433        O  0.12011980  0.96364071  0.83576917    -0.91000
C434        C  0.18411014  0.11689958  0.88806422     1.18100
H435        H  0.16632974  0.96608206  0.97443096     0.34000
H436        H  0.03329134  0.95019563  0.88000364     0.44900
H437        H  0.12699437  0.11809119  0.98346079     0.38400
H438        H  0.01525552  0.94523645  0.05044932     0.34900
H439        H  0.06970082  0.86496458  0.84570234     0.26700
H440        H  0.90772215  0.90512665  0.97797816     0.32600
H441        H  0.99248485  0.04812584  0.07721211     0.38500
H442        H  0.17204576  0.92640596  0.87949963     0.33000
H443        H  0.26121080  0.09324717  0.97074975     0.31900
H444        H  0.20629190  0.16351942  0.99920912     0.33500
H445        H  0.12987376  0.14241912  0.05465161     0.32500
H446        H  0.09972709  0.97496409  0.82741157     0.36500
H447        H  0.06863839  0.07682456  0.83490888     0.29200
H448        H  0.08807920  0.86876260  0.08537982     0.33500
H449        H  0.05180105  0.05189909  0.12348006     0.36300
H450        H  0.23785993  0.03608091  0.96734820     0.28900
H451        H  0.04688585  0.10017384  0.86334064     0.41800
H452        H  0.96154034  0.84753397  0.89947533     0.31900
H453        H  0.03105147  0.85313558  0.87605293     0.39500
H454        H  0.13557020  0.11003069  0.08684479     0.31300
H455        H  0.93271797  0.92305357  0.02091369     0.31400
H456        H  0.08555696  0.91075015  0.11120598     0.31700
Zr457      Zr  0.47295135  0.64441261  0.60831872     2.17500
O458        O  0.53351517  0.63088706  0.58917463    -0.50700
O459        O  0.51352898  0.70302137  0.55552396    -0.73900
O460        O  0.45289535  0.57170030  0.56049422    -0.80700
O461        O  0.53017363  0.72837140  0.70802706    -0.82400
O462        O  0.38020112  0.53711440  0.54539427    -0.78100
O463        O  0.52590633  0.66539600  0.66789512    -0.89700
O464        O  0.48203928  0.74763443  0.53822628    -0.75700
O465        O  0.41733419  0.64614399  0.56688585    -0.85200
O466        O  0.47572332  0.72057790  0.62549501    -0.84800
O467        O  0.40380981  0.57470621  0.62587694    -0.71600
O468        O  0.45702523  0.64370037  0.68104598    -0.83700
Zr469      Zr  0.33412068  0.64787302  0.67824486     2.26400
Zr470      Zr  0.34808282  0.57834808  0.58549069     2.06300
Zr471      Zr  0.45806373  0.71881067  0.69786063     2.10000
Zr472      Zr  0.41958129  0.72122316  0.58490086     1.78800
O473        O  0.47732438  0.72774728  0.77168912    -0.92500
O474        O  0.38563367  0.70266684  0.51566790    -0.40300
O475        O  0.40145210  0.71846364  0.65749591    -0.77000
O476        O  0.34981998  0.65366089  0.60426034    -0.95700
O477        O  0.33338329  0.57414522  0.65874766    -0.89000
O478        O  0.39130045  0.64877165  0.71826217    -0.91800
C479        C  0.51131521  0.73496306  0.53366719     1.01900
C480        C  0.54184329  0.69660734  0.69939168     1.14900
C481        C  0.41738978  0.53885180  0.54161514     1.05700
O482        O  0.33262485  0.58424439  0.51277102    -0.94000
O483        O  0.27090693  0.55889641  0.58232213    -0.89700
O484        O  0.26550809  0.60259959  0.63778230    -0.82900
C485        C  0.24876311  0.57218923  0.60614148     1.12300
O486        O  0.44300515  0.54844989  0.71465737    -0.95900
Zr487      Zr  0.39006972  0.57420585  0.69885340     1.88900
O488        O  0.29190878  0.58261122  0.72915974    -0.72600
O489        O  0.29690629  0.49105650  0.58875554    -0.51800
O490        O  0.35841862  0.48746145  0.67984200    -0.96500
O491        O  0.40708526  0.58107722  0.77345945    -0.53700
O492        O  0.32302272  0.53528247  0.73586264    -0.73100
C493        C  0.29301431  0.54552546  0.74419721     0.99200
O494        O  0.28984170  0.68699917  0.68958866    -0.61900
O495        O  0.50727976  0.80565893  0.68845847    -0.56700
O496        O  0.35002225  0.71485161  0.73023315    -0.93400
O497        O  0.42409275  0.75967203  0.73450563    -0.91800
O498        O  0.46221565  0.80969489  0.59659596    -0.92200
O499        O  0.38170669  0.76710215  0.57500984    -0.91000
C500        C  0.38584743  0.75263578  0.74349671     1.18100
H501        H  0.50422715  0.74832374  0.62068307     0.34000
H502        H  0.32736781  0.65581316  0.58894956     0.44900
H503        H  0.38632532  0.65121333  0.74767365     0.38400
H504        H  0.40356074  0.54447952  0.62001607     0.34900
H505        H  0.39819079  0.73468007  0.50253671     0.26700
H506        H  0.29313216  0.47821907  0.55952158     0.32600
H507        H  0.35131479  0.47082534  0.70663958     0.38500
H508        H  0.49312205  0.81823891  0.59304620     0.33000
H509        H  0.48832679  0.81780387  0.67770865     0.31900
H510        H  0.46684638  0.69398977  0.78037937     0.33500
H511        H  0.39377153  0.54696187  0.78237637     0.32500
H512        H  0.35079904  0.74418469  0.58163485     0.36500
H513        H  0.29605220  0.70806805  0.66551765     0.29200
H514        H  0.56040345  0.66060446  0.59932347     0.33500
H515        H  0.42723508  0.51828023  0.73043751     0.36300
H516        H  0.51535810  0.82026999  0.71715789     0.28900
H517        H  0.25882389  0.66127681  0.68592171     0.41800
H518        H  0.30785206  0.55150719  0.50471990     0.31900
H519        H  0.39862091  0.68530585  0.50020234     0.39500
H520        H  0.38931048  0.59366704  0.78738366     0.31300
H521        H  0.31342907  0.47774067  0.60279378     0.31400
H522        H  0.53536751  0.63242809  0.55840316     0.31700
C523        C  0.02471900  0.43506402  0.70989068    -0.04800
C524        C  0.05029271  0.45883625  0.74596590     0.09300
C525        C  0.02949241  0.46069278  0.78314846    -0.02200
C526        C  0.98355987  0.43978901  0.78421890    -0.00500
C527        C  0.95712477  0.41359854  0.74857540    -0.04100
C528        C  0.97856807  0.41231068  0.71107711     0.02900
C529        C  0.09867737  0.47723189  0.74651335     0.09800
C530        C  0.05537774  0.48203176  0.82117908     0.35700
C531        C  0.95377626  0.38647750  0.67353932     0.39100
C532        C  0.12924248  0.52774638  0.75153007    -0.04500
C533        C  0.17392268  0.54378528  0.75953933     0.02700
C534        C  0.18793178  0.50945521  0.76465958    -0.04100
C535        C  0.15745708  0.45895254  0.75746451    -0.00300
C536        C  0.11354760  0.44324548  0.74710066    -0.02900
C537        C  0.11425594  0.56297207  0.75036212     0.36400
C538        C  0.16883802  0.42195239  0.76646522     0.40000
C539        C  0.20511148  0.59549544  0.76485078     0.39200
C540        C  0.08277154  0.39134097  0.74034763     0.36100
C541        C  0.04599278  0.43147080  0.67205802     0.36800
C542        C  0.96429484  0.44670043  0.82220652     0.40000
N543        N  0.23005510  0.63683099  0.76873378    -0.38100
N544        N  0.10210703  0.59093200  0.74956072    -0.39600
N545        N  0.17548230  0.39075195  0.77437634    -0.37400
N546        N  0.05835653  0.35007050  0.73448830    -0.39800
N547        N  0.07605588  0.49866818  0.85148218    -0.39600
N548        N  0.94945654  0.45264246  0.85266521    -0.37200
N549        N  0.93442877  0.36623236  0.64330725    -0.38200
N550        N  0.06299906  0.42773530  0.64228041    -0.39900
C551        C  0.38783751  0.23829681  0.77485778    -0.04800
C552        C  0.41433811  0.22679126  0.79949435     0.09300
C553        C  0.39598836  0.19620608  0.83339527    -0.02200
C554        C  0.35081046  0.17422661  0.84072508    -0.00500
C555        C  0.32385031  0.18439634  0.81528073    -0.04100
C556        C  0.34256426  0.21689000  0.78261105     0.02900
C557        C  0.46063159  0.24266666  0.78804810     0.09800
C558        C  0.42373220  0.18695843  0.86048045     0.35700
C559        C  0.31487927  0.22675424  0.75615650     0.39100
C560        C  0.49560251  0.28348735  0.80870488    -0.04500
C561        C  0.53890272  0.29285314  0.80352606     0.02700
C562        C  0.54761963  0.26148334  0.77735459    -0.04100
C563        C  0.51279418  0.22392616  0.75298965    -0.00300
C564        C  0.46940671  0.21372794  0.75932424    -0.02900
C565        C  0.48683896  0.31573810  0.83539411     0.36400
C566        C  0.52114854  0.19629009  0.72065111     0.40000
C567        C  0.57455284  0.33676348  0.82305617     0.39200
C568        C  0.43342518  0.17250575  0.73707204     0.36100
C569        C  0.40712659  0.27178819  0.74139508     0.36800
C570        C  0.33203713  0.14045140  0.87418368     0.40000
N571        N  0.60242659  0.37251325  0.83835229    -0.38100
N572        N  0.47991353  0.34167246  0.85648226    -0.39600
N573        N  0.52726462  0.17455819  0.69411244    -0.37400
N574        N  0.40462172  0.13957650  0.71950354    -0.39800
N575        N  0.44606241  0.18010014  0.88221332    -0.39600
N576        N  0.31750725  0.11334325  0.90077860    -0.37200
N577        N  0.29252119  0.23440523  0.73519426    -0.38200
N578        N  0.42242274  0.29875338  0.71478145    -0.39900
C579        C  0.23734890  0.27935323  0.81891519    -0.04800
C580        C  0.28078657  0.31918580  0.82351913     0.09300
C581        C  0.31287069  0.30907135  0.83919791    -0.02200
C582        C  0.30059251  0.26257012  0.85474804    -0.00500
C583        C  0.25902757  0.22163220  0.84485091    -0.04100
C584        C  0.22768700  0.23079398  0.82567300     0.02900
C585        C  0.29131200  0.37103588  0.81365725     0.09800
C586        C  0.35895068  0.34486707  0.83654351     0.35700
C587        C  0.18642718  0.19062832  0.80996018     0.39100
C588        C  0.30939234  0.40977539  0.84440051    -0.04500
C589        C  0.30956802  0.45411394  0.83829929     0.02700
C590        C  0.28884144  0.45958347  0.80280096    -0.04100
C591        C  0.27723920  0.42428130  0.76931261    -0.00300
C592        C  0.27985655  0.38118337  0.77443327    -0.02900
C593        C  0.32797369  0.40462987  0.88263525     0.36400
C594        C  0.26040499  0.43024448  0.73019449     0.40000
C595        C  0.33028601  0.49398327  0.86942078     0.39200
C596        C  0.26988347  0.34660431  0.73943119     0.36100
C597        C  0.20228693  0.28783131  0.80641837     0.36800
C598        C  0.33053440  0.25753441  0.88203544     0.40000
N599        N  0.34688108  0.52563635  0.89432126    -0.38100
N600        N  0.34463764  0.40130363  0.91229515    -0.39600
N601        N  0.24686012  0.43448592  0.69879312    -0.37400
N602        N  0.26189367  0.31893981  0.71155339    -0.39800
N603        N  0.39579571  0.37315942  0.83417055    -0.39600
N604        N  0.35456362  0.25450783  0.90452196    -0.37200
N605        N  0.15372046  0.15884178  0.79662328    -0.38200
N606        N  0.17431386  0.29448564  0.79618613    -0.39900
C607        C  0.00766966  0.63717379  0.94426956    -0.04800
C608        C  0.96982295  0.63813638  0.93201080     0.09300
C609        C  0.96669030  0.68034333  0.94118481    -0.02200
C610        C  0.00200413  0.72213052  0.96102374    -0.00500
C611        C  0.04116180  0.72255911  0.97174009    -0.04100
C612        C  0.04369854  0.67934204  0.96231510     0.02900
C613        C  0.93572750  0.59620294  0.90572041     0.09800
C614        C  0.92780902  0.68156567  0.92843104     0.35700
C615        C  0.08461916  0.67898418  0.96551068     0.39100
C616        C  0.89494615  0.56271255  0.92256075    -0.04500
C617        C  0.86606968  0.51945712  0.89967272     0.02700
C618        C  0.87725498  0.51031297  0.85945920    -0.04100
C619        C  0.91638273  0.54500391  0.84136090    -0.00300
C620        C  0.94572007  0.58768616  0.86446052    -0.02900
C621        C  0.88209090  0.57285312  0.96294274     0.36400
C622        C  0.92670231  0.53639132  0.79905939     0.40000
C623        C  0.82476976  0.48416987  0.91735132     0.39200
C624        C  0.98648167  0.62213427  0.84558515     0.36100
C625        C  0.01054579  0.59320203  0.93588816     0.36800
C626        C  0.99881312  0.76579421  0.96722353     0.40000
N627        N  0.79177958  0.45583754  0.93120527    -0.38100
N628        N  0.87055046  0.58081640  0.99459354    -0.39600
N629        N  0.93495545  0.52969846  0.76532588    -0.37400
N630        N  0.01867868  0.64820595  0.82923499    -0.39800
N631        N  0.89671822  0.68246401  0.91842529    -0.39600
N632        N  0.99538879  0.80029351  0.97084928    -0.37200
N633        N  0.11701609  0.67805503  0.96684621    -0.38200
N634        N  0.01308487  0.55842350  0.92891462    -0.39900
C635        C  0.52829439  0.94094467  0.75290125    -0.04800
C636        C  0.51513077  0.95544515  0.71734797     0.09300
C637        C  0.47653816  0.92175398  0.69565096    -0.02200
C638        C  0.44849982  0.87578512  0.71242964    -0.00500
C639        C  0.45745127  0.86540879  0.75266822    -0.04100
C640        C  0.49962943  0.89600188  0.77046965     0.02900
C641        C  0.54029431  0.00773032  0.70579745     0.09800
C642        C  0.46474215  0.93566417  0.65737791     0.35700
C643        C  0.51276681  0.88237072  0.80813300     0.39100
C644        C  0.57752650  0.02414607  0.68070517    -0.04500
C645        C  0.60619052  0.07479101  0.67693286     0.02700
C646        C  0.59935455  0.10915605  0.70073305    -0.04100
C647        C  0.56197532  0.09226386  0.72603504    -0.00300
C648        C  0.53133256  0.04193314  0.72657390    -0.02900
C649        C  0.58842168  0.98867950  0.66285109     0.36400
C650        C  0.55879810  0.12508821  0.75700792     0.40000
C651        C  0.64497018  0.09161492  0.65169924     0.39200
C652        C  0.49255134  0.02480929  0.75193517     0.36100
C653        C  0.57017869  0.97397159  0.77295282     0.36800
C654        C  0.41136334  0.83976241  0.68780726     0.40000
N655        N  0.67617541  0.10542824  0.63188927    -0.38100
N656        N  0.59658200  0.95936731  0.65003754    -0.39600
N657        N  0.55663720  0.15047322  0.78279458    -0.37400
N658        N  0.46153503  0.01085614  0.77203805    -0.39800
N659        N  0.45547600  0.94723627  0.62700887    -0.39600
N660        N  0.38258292  0.81108216  0.66701824    -0.37200
N661        N  0.52332694  0.87187492  0.83833618    -0.38200
N662        N  0.60364598  0.00062365  0.78865966    -0.39900
C663        C  0.24772985  0.73569381  0.84804945    -0.04800
C664        C  0.23848086  0.77088241  0.83264700     0.09300
C665        C  0.25849903  0.79433326  0.79590753    -0.02200
C666        C  0.29331652  0.78948404  0.77905533    -0.00500
C667        C  0.30818419  0.76094353  0.79907682    -0.04100
C668        C  0.28223740  0.73029250  0.83093136     0.02900
C669        C  0.21293155  0.78828449  0.85844498     0.09800
C670        C  0.24586562  0.82702273  0.77775266     0.35700
C671        C  0.29439959  0.69738611  0.84928993     0.39100
C672        C  0.23516474  0.83083205  0.88477407    -0.04500
C673        C  0.21152817  0.84363084  0.91333392     0.02700
C674        C  0.16617638  0.81270454  0.91720224    -0.04100
C675        C  0.14354018  0.77600007  0.88557283    -0.00300
C676        C  0.16690636  0.76275371  0.85707675    -0.02900
C677        C  0.28241026  0.86066510  0.88328310     0.36400
C678        C  0.09668949  0.75422079  0.88063837     0.40000
C679        C  0.23306625  0.89046527  0.93598888     0.39200
C680        C  0.14382214  0.72240132  0.82695253     0.36100
C681        C  0.22394574  0.70802928  0.88357906     0.36800
C682        C  0.31784089  0.82071436  0.74566150     0.40000
N683        N  0.25091510  0.92876231  0.95264705    -0.38100
N684        N  0.32010137  0.88452807  0.88205547    -0.39600
N685        N  0.05950982  0.73883162  0.87611649    -0.37400
N686        N  0.12555183  0.69015964  0.80287939    -0.39800
N687        N  0.23593599  0.85317135  0.76322178    -0.39600
N688        N  0.33593688  0.84734198  0.71944787    -0.37200
N689        N  0.30374418  0.67082545  0.86397029    -0.38200
N690        N  0.20458169  0.68616926  0.91187872    -0.39900
C691        C  0.84030698  0.05734931  0.81279169    -0.04800
C692        C  0.85151186  0.08301687  0.85191431     0.09300
C693        C  0.87016681  0.06907277  0.88343420    -0.02200
C694        C  0.88342402  0.03444086  0.87399273    -0.00500
C695        C  0.87601571  0.01209399  0.83349549    -0.04100
C696        C  0.85245671  0.02175652  0.80364100     0.02900
C697        C  0.84856210  0.12840427  0.85751922     0.09800
C698        C  0.87689871  0.09162102  0.92499488     0.35700
C699        C  0.84336380  0.99737300  0.76264721     0.39100
C700        C  0.81250228  0.12737068  0.87756880    -0.04500
C701        C  0.80488226  0.16686204  0.87404501     0.02700
C702        C  0.83289451  0.20686198  0.84987677    -0.04100
C703        C  0.87210954  0.21075412  0.83470608    -0.00300
C704        C  0.87999480  0.17145205  0.83866390    -0.02900
C705        C  0.78205493  0.08459232  0.89966444     0.36400
C706        C  0.90233681  0.25306876  0.81189489     0.40000
C707        C  0.76690275  0.16532942  0.89334094     0.39200
C708        C  0.91898381  0.17377656  0.82099714     0.36100
C709        C  0.81817400  0.06942265  0.78135844     0.36800
C710        C  0.90908300  0.02616047  0.90435298     0.40000
N711        N  0.73671500  0.16419438  0.90892344    -0.38100
N712        N  0.75797441  0.05046576  0.91745697    -0.39600
N713        N  0.92658728  0.28675414  0.79370372    -0.37400
N714        N  0.94993292  0.17525506  0.80693333    -0.39800
N715        N  0.88109489  0.10902968  0.95828084    -0.39600
N716        N  0.93024435  0.02003281  0.92814418    -0.37200
N717        N  0.83626741  0.97796798  0.72993152    -0.38200
N718        N  0.80055014  0.07925239  0.75640971    -0.39900
C719        C  0.59510514  0.54062652  0.68894981    -0.04800
C720        C  0.62693015  0.53550329  0.71082329     0.09300
C721        C  0.64838812  0.56672354  0.74607793    -0.02200
C722        C  0.63721734  0.60223012  0.75982131    -0.00500
C723        C  0.60433543  0.60630636  0.73849802    -0.04100
C724        C  0.58298532  0.57480343  0.70330198     0.02900
C725        C  0.63706555  0.49638042  0.69714714     0.09800
C726        C  0.68184072  0.56206903  0.76814543     0.35700
C727        C  0.54726250  0.57575685  0.68215212     0.39100
C728        C  0.67620760  0.50854159  0.67612469    -0.04500
C729        C  0.68861427  0.47275800  0.66888015     0.02700
C730        C  0.66141724  0.42451552  0.68176977    -0.04100
C731        C  0.61868200  0.41070631  0.69482496    -0.00300
C732        C  0.60725225  0.44685221  0.70465987    -0.02900
C733        C  0.70419886  0.55816361  0.66331630     0.36400
C734        C  0.58649390  0.35957290  0.69788219     0.40000
C735        C  0.72989815  0.48559207  0.64919717     0.39200
C736        C  0.56584998  0.43336647  0.72447907     0.36100
C737        C  0.57489634  0.51081395  0.65128640     0.36800
C738        C  0.65953065  0.63456695  0.79566705     0.40000
N739        N  0.76270922  0.49573031  0.63322193    -0.38100
N740        N  0.72627802  0.59780368  0.65306412    -0.39600
N741        N  0.55992136  0.31879683  0.69858967    -0.37400
N742        N  0.53291489  0.42253977  0.74050116    -0.39800
N743        N  0.70865993  0.55825382  0.78543059    -0.39600
N744        N  0.67760221  0.66062685  0.82407872    -0.37200
N745        N  0.51803377  0.57405234  0.66445279    -0.38200
N746        N  0.55865101  0.48738803  0.62115883    -0.39900
C747        C  0.78478061  0.83814073  0.83496698    -0.04800
C748        C  0.77647242  0.82790288  0.79130512     0.09300
C749        C  0.81179133  0.85366733  0.76420363    -0.02200
C750        C  0.85403749  0.88793598  0.78010788    -0.00500
C751        C  0.86105601  0.90252513  0.82330668    -0.04100
C752        C  0.82603487  0.87650498  0.85050222     0.02900
C753        C  0.73061505  0.79227787  0.77355727     0.09800
C754        C  0.80425807  0.84750481  0.71938384     0.35700
C755        C  0.83229553  0.89044929  0.89450969     0.39100
C756        C  0.69525662  0.80085309  0.78102034    -0.04500
C757        C  0.65205000  0.76634152  0.76686819     0.02700
C758        C  0.64409353  0.72531248  0.74011894    -0.04100
C759        C  0.68106176  0.72217013  0.72703154    -0.00300
C760        C  0.72264554  0.75184941  0.74655535    -0.02900
C761        C  0.70352697  0.84596182  0.80273193     0.36400
C762        C  0.67648322  0.68927598  0.69220658     0.40000
C763        C  0.61648508  0.77381043  0.78065935     0.39200
C764        C  0.75663172  0.73926431  0.73980704     0.36100
C765        C  0.75060959  0.80980934  0.86403533     0.36800
C766        C  0.88981342  0.90907437  0.75109882     0.40000
N767        N  0.58851090  0.78041036  0.79199265    -0.38100
N768        N  0.71046412  0.88221054  0.81974358    -0.39600
N769        N  0.67296610  0.66364255  0.66387045    -0.37400
N770        N  0.78354270  0.72884800  0.73446706    -0.39800
N771        N  0.79830867  0.84271530  0.68364913    -0.39600
N772        N  0.91774543  0.92488892  0.72716103    -0.37200
N773        N  0.83722793  0.90172099  0.92967976    -0.38200
N774        N  0.72332584  0.78723872  0.88727753    -0.39900
C775        C  0.08600320  0.30737357  0.38394329    -0.04800
C776        C  0.06194283  0.26186587  0.40269396     0.09300
C777        C  0.01584576  0.23913812  0.40400026    -0.02200
C778        C  0.99398484  0.26116892  0.38588704    -0.00500
C779        C  0.01784839  0.30521740  0.36496220    -0.04100
C780        C  0.06395864  0.32842431  0.36420122     0.02900
C781        C  0.08441699  0.23592611  0.41891897     0.09800
C782        C  0.99066792  0.19168297  0.42210068     0.35700
C783        C  0.08864896  0.37266650  0.34152939     0.39100
C784        C  0.08607428  0.23039422  0.46218668    -0.04500
C785        C  0.09956852  0.19842750  0.47697606     0.02700
C786        C  0.11155085  0.17177384  0.44871555    -0.04100
C787        C  0.11334771  0.18027492  0.40571860    -0.00300
C788        C  0.09951915  0.21206569  0.39078575    -0.02900
C789        C  0.07052441  0.25454536  0.49128219     0.36400
C790        C  0.12621063  0.15352540  0.37660271     0.40000
C791        C  0.09834520  0.19031830  0.52128854     0.39200
C792        C  0.09739342  0.21715385  0.34624117     0.36100
C793        C  0.13340288  0.33192983  0.38440242     0.36800
C794        C  0.94653082  0.23665084  0.38630760     0.40000
N795        N  0.09723867  0.18361376  0.55657516    -0.38100
N796        N  0.05745457  0.27309957  0.51450999    -0.39600
N797        N  0.13649058  0.13230883  0.35322622    -0.37400
N798        N  0.09542387  0.22127911  0.31075501    -0.39800
N799        N  0.97061996  0.15380444  0.43646227    -0.39600
N800        N  0.90869849  0.21700726  0.38657350    -0.37200
N801        N  0.10873681  0.40777928  0.32323482    -0.38200
N802        N  0.17123103  0.35139862  0.38499283    -0.39900
C803        C  0.14306424  0.68198476  0.59033890    -0.04800
C804        C  0.09775374  0.66484785  0.59392893     0.09300
C805        C  0.06879491  0.61438471  0.59837435    -0.02200
C806        C  0.08492932  0.58132808  0.59759731    -0.00500
C807        C  0.13039850  0.59883153  0.59592527    -0.04100
C808        C  0.15945082  0.64964941  0.59405821     0.02900
C809        C  0.08128828  0.70043160  0.59159966     0.09800
C810        C  0.02253149  0.59655716  0.60435689     0.35700
C811        C  0.20637371  0.66896117  0.59629716     0.39100
C812        C  0.05801713  0.70020072  0.55580510    -0.04500
C813        C  0.05093530  0.73972052  0.54939549     0.02700
C814        C  0.06860006  0.78058664  0.57766901    -0.04100
C815        C  0.08878251  0.77912812  0.61502804    -0.00300
C816        C  0.09405591  0.73852910  0.62249437    -0.02900
C817        C  0.04398183  0.66100154  0.52414815     0.36400
C818        C  0.10548175  0.82022605  0.64504278     0.40000
C819        C  0.02830144  0.74004863  0.51206199     0.39200
C820        C  0.11454504  0.73697840  0.66106271     0.36100
C821        C  0.17280839  0.73285795  0.58177559     0.36800
C822        C  0.05461966  0.52924839  0.59792753     0.40000
N823        N  0.01004623  0.74047841  0.48244250    -0.38100
N824        N  0.03270812  0.62957444  0.49903646    -0.39600
N825        N  0.11891386  0.85313018  0.66887779    -0.37400
N826        N  0.13093056  0.73576580  0.69180922    -0.39800
N827        N  0.98561059  0.58224351  0.60923960    -0.39600
N828        N  0.02996204  0.48774137  0.59762353    -0.37200
N829        N  0.24382472  0.68456180  0.59764082    -0.38200
N830        N  0.19622940  0.77335374  0.57455617    -0.39900
C831        C  0.01637045  0.41276040  0.45312438    -0.04800
C832        C  0.05586570  0.45301689  0.43940124     0.09300
C833        C  0.06041607  0.46097516  0.39602354    -0.02200
C834        C  0.02740266  0.42811524  0.36733706    -0.00500
C835        C  0.99125476  0.38442661  0.38075812    -0.04100
C836        C  0.98507492  0.37807493  0.42396133     0.02900
C837        C  0.09362196  0.48348125  0.47017942     0.09800
C838        C  0.10067475  0.50033350  0.38021350     0.35700
C839        C  0.94741716  0.33449602  0.43831677     0.39100
C840        C  0.11289284  0.46097713  0.49251349    -0.04500
C841        C  0.14269561  0.48633893  0.52621776     0.02700
C842        C  0.15867354  0.53722932  0.53474128    -0.04100
C843        C  0.14617523  0.56137976  0.50603361    -0.00300
C844        C  0.11118199  0.53449129  0.47697541    -0.02900
C845        C  0.10211418  0.41141640  0.48041618     0.36400
C846        C  0.17094678  0.61405809  0.50454895     0.40000
C847        C  0.15545012  0.45886160  0.55220268     0.39200
C848        C  0.09249934  0.55944279  0.45527140     0.36100
C849        C  0.00879899  0.40555909  0.49739708     0.36800
C850        C  0.03254996  0.43654031  0.32309144     0.40000
N851        N  0.16521268  0.43634153  0.57274567    -0.38100
N852        N  0.09373856  0.37213411  0.47009069    -0.39600
N853        N  0.19105221  0.65599929  0.50146734    -0.37400
N854        N  0.07760427  0.57946401  0.43806010    -0.39800
N855        N  0.13277127  0.53158435  0.36733540    -0.39600
N856        N  0.03653024  0.44277973  0.28767451    -0.37200
N857        N  0.91742388  0.29986804  0.45031507    -0.38200
N858        N  0.00264569  0.39940457  0.53268519    -0.39900
C859        C  0.83691216  0.60419114  0.36461858    -0.04800
C860        C  0.87325589  0.62480715  0.39218497     0.09300
C861        C  0.87790848  0.59454625  0.42068194    -0.02200
C862        C  0.84415567  0.54592027  0.42455161    -0.00500
C863        C  0.80358734  0.52920000  0.40387402    -0.04100
C864        C  0.80133675  0.55719176  0.37125623     0.02900
C865        C  0.90376839  0.67896971  0.39461603     0.09800
C866        C  0.91567670  0.61416110  0.44847459     0.35700
C867        C  0.76184458  0.54012271  0.34625658     0.39100
C868        C  0.88844436  0.71078215  0.40899220    -0.04500
C869        C  0.91832413  0.76030352  0.41850514     0.02700
C870        C  0.96346356  0.77773409  0.41601228    -0.04100
C871        C  0.97842021  0.74830964  0.39572062    -0.00300
C872        C  0.94848376  0.69882142  0.38502143    -0.02900
C873        C  0.84217351  0.69326956  0.41427282     0.36400
C874        C  0.02452909  0.76832096  0.38708574     0.40000
C875        C  0.90293573  0.79453932  0.42778670     0.39200
C876        C  0.96368458  0.66812751  0.36491127     0.36100
C877        C  0.83482607  0.63288620  0.33136587     0.36800
C878        C  0.85062745  0.51358945  0.45089804     0.40000
N879        N  0.89118589  0.82257454  0.43360165    -0.38100
N880        N  0.80545574  0.68088463  0.41780435    -0.39600
N881        N  0.06128114  0.78442099  0.37990053    -0.37400
N882        N  0.97592860  0.64372604  0.34888251    -0.39800
N883        N  0.94550422  0.62930091  0.47100364    -0.39600
N884        N  0.85568081  0.48767010  0.47180973    -0.37200
N885        N  0.73049746  0.52686090  0.32612079    -0.38200
N886        N  0.83288008  0.65587261  0.30510248    -0.39900
C887        C  0.27391201  0.35271471  0.54601930    -0.04800
C888        C  0.28900260  0.34194476  0.58257033     0.09300
C889        C  0.32882659  0.37788113  0.60124445    -0.02200
C890        C  0.35674450  0.42059233  0.57995144    -0.00500
C891        C  0.34518169  0.42683731  0.53926254    -0.04100
C892        C  0.30167958  0.39532996  0.52472753     0.02900
C893        C  0.26757930  0.29014854  0.59602367     0.09800
C894        C  0.34292587  0.36871738  0.64062574     0.35700
C895        C  0.28617551  0.40525720  0.48649322     0.39100
C896        C  0.28790297  0.26205231  0.58659213    -0.04500
C897        C  0.26460136  0.21108304  0.59059946     0.02700
C898        C  0.22008041  0.18732045  0.60166703    -0.04100
C899        C  0.20216516  0.21602082  0.61745013    -0.00300
C900        C  0.22569591  0.26743566  0.61401163    -0.02900
C901        C  0.33152355  0.28486723  0.56927829     0.36400
C902        C  0.15928832  0.19292683  0.63598764     0.40000
C903        C  0.28611287  0.18278241  0.58187463     0.39200
C904        C  0.20601988  0.29672560  0.62663566     0.36100
C905        C  0.23117911  0.31812410  0.52840264     0.36800
C906        C  0.39812108  0.45562229  0.59947684     0.40000
N907        N  0.30403994  0.16097695  0.57516170    -0.38100
N908        N  0.36621493  0.30306135  0.55532997    -0.39600
N909        N  0.12544269  0.17514923  0.65165514    -0.37400
N910        N  0.19046042  0.32032483  0.63648430    -0.39800
N911        N  0.35477713  0.36157156  0.67175758    -0.39600
N912        N  0.43087014  0.48263367  0.61624005    -0.37200
N913        N  0.27388991  0.41282788  0.45581256    -0.38200
N914        N  0.19701870  0.29080454  0.51436130    -0.39900
C915        C  0.54248208  0.49210506  0.49199785    -0.04800
C916        C  0.56339211  0.51323718  0.45472076     0.09300
C917        C  0.55146516  0.54379876  0.43430041    -0.02200
C918        C  0.51620933  0.54945940  0.44919724    -0.00500
C919        C  0.49054568  0.52176291  0.48271344    -0.04100
C920        C  0.50477194  0.49368563  0.50453252     0.02900
C921        C  0.59728653  0.50181150  0.43755090     0.09800
C922        C  0.57378955  0.56712122  0.39666598     0.35700
C923        C  0.47684744  0.45835902  0.53413261     0.39100
C924        C  0.58488948  0.45393101  0.42192164    -0.04500
C925        C  0.61657008  0.43901120  0.41733499     0.02700
C926        C  0.66100576  0.47234857  0.42593154    -0.04100
C927        C  0.67373712  0.52187159  0.43676784    -0.00300
C928        C  0.64196325  0.53611838  0.44340038    -0.02900
C929        C  0.53929404  0.41947634  0.41218526     0.36400
C930        C  0.71928959  0.55762889  0.44483496     0.40000
C931        C  0.60337553  0.38853915  0.40699388     0.39200
C932        C  0.65499645  0.58527834  0.45923966     0.36100
C933        C  0.55830379  0.46576478  0.51604463     0.36800
C934        C  0.50301590  0.57924574  0.42686462     0.40000
N935        N  0.59378375  0.34831067  0.39944938    -0.38100
N936        N  0.50301005  0.39191670  0.40403108    -0.39600
N937        N  0.75548300  0.58607640  0.45224466    -0.37400
N938        N  0.66515591  0.62438063  0.47195211    -0.39800
N939        N  0.59156074  0.58570456  0.36658566    -0.39600
N940        N  0.49258252  0.60292180  0.40877613    -0.37200
N941        N  0.45562708  0.42759199  0.55637642    -0.38200
N942        N  0.57127467  0.44506186  0.53506810    -0.39900
C943        C  0.45343428  0.10756021  0.44535509    -0.04800
C944        C  0.42416028  0.07079223  0.47180366     0.09300
C945        C  0.43928978  0.04307304  0.49295068    -0.02200
C946        C  0.48425940  0.05705560  0.49255781    -0.00500
C947        C  0.51316357  0.09473379  0.46709124    -0.04100
C948        C  0.49629158  0.11575937  0.44019760     0.02900
C949        C  0.37859850  0.06309380  0.47884940     0.09800
C950        C  0.40909342  0.00138578  0.51632199     0.35700
C951        C  0.52404107  0.14664812  0.40792530     0.39100
C952        C  0.34819139  0.04954577  0.44525413    -0.04500
C953        C  0.30622877  0.04405915  0.45203626     0.02700
C954        C  0.29312271  0.04933606  0.49267991    -0.04100
C955        C  0.32289935  0.06163319  0.52636086    -0.00300
C956        C  0.36589976  0.07055095  0.51927926    -0.02900
C957        C  0.35960266  0.04030687  0.40368016     0.36400
C958        C  0.30895096  0.06401675  0.56859299     0.40000
C959        C  0.27566801  0.03097271  0.41734238     0.39200
C960        C  0.39727084  0.08811890  0.55370546     0.36100
C961        C  0.44124716  0.14034766  0.42682199     0.36800
C962        C  0.50103141  0.03375815  0.51908103     0.40000
N963        N  0.25113401  0.02062865  0.38982105    -0.38100
N964        N  0.36869032  0.03334528  0.37037461    -0.39600
N965        N  0.29775579  0.06548680  0.60235034    -0.37400
N966        N  0.42230769  0.10209623  0.58114541    -0.39800
N967        N  0.38520263  0.96803291  0.53504018    -0.39600
N968        N  0.51436136  0.01516604  0.54035347    -0.37200
N969        N  0.54704214  0.16942120  0.38177621    -0.38200
N970        N  0.43163159  0.16696062  0.41269409    -0.39900
C971        C  0.82380926  0.91053107  0.51906280    -0.04800
C972        C  0.79425396  0.86054072  0.51055791     0.09300
C973        C  0.80999576  0.82721123  0.51100880    -0.02200
C974        C  0.85487261  0.84376347  0.51943629    -0.00500
C975        C  0.88589259  0.89475454  0.52299143    -0.04100
C976        C  0.86910327  0.92769858  0.52460310     0.02900
C977        C  0.74646475  0.84335214  0.50189590     0.09800
C978        C  0.78011639  0.77579397  0.50113850     0.35700
C979        C  0.89749959  0.97954299  0.53360514     0.39100
C980        C  0.73318212  0.85405589  0.46399922    -0.04500
C981        C  0.68864737  0.83940171  0.45639464     0.02700
C982        C  0.65681628  0.81388458  0.48653084    -0.04100
C983        C  0.67011412  0.80317140  0.52444988    -0.00300
C984        C  0.71457143  0.81792617  0.53210792    -0.02900
C985        C  0.76533646  0.87902056  0.43228494     0.36400
C986        C  0.63799570  0.77751218  0.55608451     0.40000
C987        C  0.67533409  0.84988088  0.41725058     0.39200
C988        C  0.72737843  0.80641900  0.57107056     0.36100
C989        C  0.80732076  0.94457961  0.52195254     0.36800
C990        C  0.86817349  0.80753452  0.52466835     0.40000
N991        N  0.66462424  0.85812455  0.38598292    -0.38100
N992        N  0.79114255  0.89892091  0.40706209    -0.39600
N993        N  0.61258731  0.75769805  0.58162626    -0.37400
N994        N  0.73729711  0.79664916  0.60202863    -0.39800
N995        N  0.75629685  0.73488454  0.49284939    -0.39600
N996        N  0.87795128  0.77794937  0.52904516    -0.37200
N997        N  0.91867482  0.02115493  0.54080890    -0.38200
N998        N  0.79397010  0.97150388  0.52417869    -0.39900
C999        C  0.57911368  0.99558707  0.42874802    -0.04800
C1000       C  0.59168616  0.98643232  0.46787710     0.09300
C1001       C  0.60806387  0.02423207  0.49926255    -0.02200
C1002       C  0.61231913  0.07007441  0.49176545    -0.00500
C1003       C  0.59724661  0.07817565  0.45364006    -0.04100
C1004       C  0.58131916  0.04098100  0.42199095     0.02900
C1005       C  0.58725060  0.93722097  0.47675603     0.09800
C1006       C  0.61884682  0.01545440  0.54032718     0.35700
C1007       C  0.56638130  0.04954780  0.38296839     0.39100
C1008       C  0.62378162  0.93396856  0.49032341    -0.04500
C1009       C  0.61814734  0.88978752  0.50541865     0.02700
C1010       C  0.57942399  0.84488972  0.49592972    -0.04100
C1011       C  0.54342058  0.84780956  0.47876021    -0.00300
C1012       C  0.54619599  0.89380698  0.47430529    -0.02900
C1013       C  0.66753089  0.97583049  0.48829577     0.36400
C1014       C  0.50441657  0.80488275  0.46249960     0.40000
C1015       C  0.65046792  0.89246060  0.53453143     0.39200
C1016       C  0.50667375  0.89627110  0.46723979     0.36100
C1017       C  0.56217807  0.95735698  0.39624274     0.36800
C1018       C  0.63045078  0.10826482  0.52448178     0.40000
N1019       N  0.67649385  0.89695222  0.55883482    -0.38100
N1020       N  0.70243446  0.00910320  0.48625093    -0.39600
N1021       N  0.47315910  0.77128657  0.44871904    -0.37400
N1022       N  0.47525583  0.89846124  0.46177453    -0.39800
N1023       N  0.62821029  0.00861129  0.57281149    -0.39600
N1024       N  0.64502663  0.13841924  0.55083266    -0.37200
N1025       N  0.55462037  0.05701254  0.35193379    -0.38200
N1026       N  0.54773516  0.92513862  0.37175884    -0.39900
C1027       C  0.69751514  0.74396519  0.12713603    -0.04800
C1028       C  0.70353947  0.70470835  0.11306680     0.09300
C1029       C  0.66704262  0.65932678  0.10110690    -0.02200
C1030       C  0.62464298  0.65330752  0.10282517    -0.00500
C1031       C  0.61869228  0.69288230  0.11586422    -0.04100
C1032       C  0.65522603  0.73830058  0.12786650     0.02900
C1033       C  0.74886927  0.71302160  0.10805042     0.09800
C1034       C  0.67328970  0.61911376  0.08667849     0.35700
C1035       C  0.64944377  0.77972723  0.13904380     0.39100
C1036       C  0.77130372  0.70789974  0.14201969    -0.04500
C1037       C  0.81689497  0.72650641  0.14016587     0.02700
C1038       C  0.84001387  0.75055591  0.10452724    -0.04100
C1039       C  0.81686691  0.75243366  0.06944380    -0.00300
C1040       C  0.77124470  0.73259929  0.07090296    -0.02900
C1041       C  0.74785128  0.68633668  0.17970914     0.36400
C1042       C  0.84051091  0.77944594  0.03350274     0.40000
C1043       C  0.84066440  0.72486873  0.17617891     0.39200
C1044       C  0.74763315  0.73528536  0.03513368     0.36100
C1045       C  0.73504840  0.79033219  0.14047096     0.36800
C1046       C  0.58706971  0.60633421  0.09122991     0.40000
N1047       N  0.85977387  0.72405593  0.20503887    -0.38100
N1048       N  0.72900017  0.66917975  0.20975675    -0.39600
N1049       N  0.85937346  0.80130038  0.00501221    -0.37400
N1050       N  0.72875938  0.73726628  0.00656814    -0.39800
N1051       N  0.67831620  0.58705377  0.07512426    -0.39600
N1052       N  0.55713107  0.56880293  0.08195679    -0.37200
N1053       N  0.64481200  0.81288725  0.14739196    -0.38200
N1054       N  0.76510906  0.82710871  0.15129878    -0.39900
C1055       C  0.15631325  0.58174007  0.17023300    -0.04800
C1056       C  0.14076652  0.60062316  0.13977773     0.09300
C1057       C  0.16765193  0.62574884  0.10653526    -0.02200
C1058       C  0.20969992  0.63086044  0.10280869    -0.00500
C1059       C  0.22561175  0.61150512  0.13321031    -0.04100
C1060       C  0.19823712  0.58681795  0.16699857     0.02900
C1061       C  0.09366412  0.58695740  0.14023738     0.09800
C1062       C  0.15168091  0.64622620  0.07619779     0.35700
C1063       C  0.21176341  0.56423170  0.19776546     0.39100
C1064       C  0.07937757  0.61261766  0.16697039    -0.04500
C1065       C  0.03581159  0.58895167  0.18106241     0.02700
C1066       C  0.00681118  0.53997611  0.16790622    -0.04100
C1067       C  0.01963533  0.51754680  0.13606936    -0.00300
C1068       C  0.06294863  0.54123059  0.12205975    -0.02900
C1069       C  0.11059041  0.66138765  0.18292262     0.36400
C1070       C  0.99068452  0.46679258  0.12301211     0.40000
C1071       C  0.02283100  0.61242980  0.21330980     0.39200
C1072       C  0.07743167  0.51574304  0.09316667     0.36100
C1073       C  0.12829313  0.55553370  0.20448608     0.36800
C1074       C  0.23613956  0.65646724  0.06763104     0.40000
N1075       N  0.01297764  0.63132358  0.23939751    -0.38100
N1076       N  0.13549851  0.70038802  0.19554803    -0.39600
N1077       N  0.96810520  0.42606613  0.11309669    -0.37400
N1078       N  0.08910048  0.49531260  0.07042465    -0.39800
N1079       N  0.13876527  0.66278823  0.05235755    -0.39600
N1080       N  0.25664007  0.67672856  0.03922586    -0.37200
N1081       N  0.22195142  0.54600603  0.22260526    -0.38200
N1082       N  0.10592684  0.53467529  0.23172348    -0.39900
C1083       C  0.92013596  0.57227301  0.11834377    -0.04800
C1084       C  0.91614538  0.60782292  0.14338174     0.09300
C1085       C  0.90780575  0.59917019  0.18643082    -0.02200
C1086       C  0.90895652  0.55942323  0.20459601    -0.00500
C1087       C  0.91339427  0.52439338  0.17949540    -0.04100
C1088       C  0.91491805  0.52913991  0.13585932     0.02900
C1089       C  0.92030165  0.65365427  0.12447960     0.09800
C1090       C  0.89932529  0.63195462  0.21245519     0.35700
C1091       C  0.90994425  0.48887615  0.10884299     0.39100
C1092       C  0.88950012  0.65016104  0.09445694    -0.04500
C1093       C  0.89372558  0.69264291  0.07622006     0.02700
C1094       C  0.92523946  0.74009826  0.09146129    -0.04100
C1095       C  0.95611905  0.74354525  0.12176012    -0.00300
C1096       C  0.95460633  0.70091501  0.13677482    -0.02900
C1097       C  0.85110146  0.60304277  0.08507555     0.36400
C1098       C  0.98801633  0.79079633  0.13997015     0.40000
C1099       C  0.86526539  0.68725606  0.04167453     0.39200
C1100       C  0.98760162  0.70620173  0.16656450     0.36100
C1101       C  0.93370085  0.58187361  0.07541857     0.36800
C1102       C  0.90935775  0.55689046  0.24949969     0.40000
N1103       N  0.84262679  0.68184104  0.01357498    -0.38100
N1104       N  0.82016231  0.56542061  0.07837521    -0.39600
N1105       N  0.01338402  0.82833665  0.15492711    -0.37400
N1106       N  0.01413067  0.71155928  0.19059706    -0.39800
N1107       N  0.89252407  0.65800828  0.23345057    -0.39600
N1108       N  0.91060731  0.55562366  0.28542664    -0.37200
N1109       N  0.90412230  0.45636717  0.08657868    -0.38200
N1110       N  0.94600056  0.58984792  0.04155916    -0.39900
C1111       C  0.64761691  0.00815513  0.24574291    -0.04800
C1112       C  0.64043024  0.97814715  0.27988897     0.09300
C1113       C  0.66949159  0.99717688  0.31449995    -0.02200
C1114       C  0.71011014  0.04034778  0.31084008    -0.00500
C1115       C  0.72016010  0.06631225  0.27376077    -0.04100
C1116       C  0.68687043  0.05313328  0.24355468     0.02900
C1117       C  0.60778497  0.92449238  0.27549875     0.09800
C1118       C  0.65906163  0.97042771  0.35246416     0.35700
C1119       C  0.69450083  0.08314625  0.20805005     0.39100
C1120       C  0.62267655  0.89052819  0.26852460    -0.04500
C1121       C  0.59322226  0.84193021  0.25451920     0.02700
C1122       C  0.54888469  0.82727588  0.24679431    -0.04100
C1123       C  0.53311660  0.85895899  0.26030100    -0.00300
C1124       C  0.56254762  0.90781487  0.27323131    -0.02900
C1125       C  0.66891901  0.90650157  0.27262293     0.36400
C1126       C  0.48642686  0.84116806  0.26099690     0.40000
C1127       C  0.60905912  0.80790827  0.24646816     0.39200
C1128       C  0.54651616  0.94162077  0.28176230     0.36100
C1129       C  0.61665906  0.99091001  0.21099566     0.36800
C1130       C  0.74336843  0.05528590  0.34324346     0.40000
N1131       N  0.62162379  0.78057910  0.24065843    -0.38100
N1132       N  0.70580737  0.91935731  0.27602552    -0.39600
N1133       N  0.44921070  0.82703194  0.26233735    -0.37400
N1134       N  0.53364524  0.96853177  0.28843359    -0.39800
N1135       N  0.65083395  0.94952505  0.38303674    -0.39600
N1136       N  0.77000768  0.06709324  0.36898595    -0.37200
N1137       N  0.69928521  0.10664349  0.17962532    -0.38200
N1138       N  0.59193032  0.97724631  0.18331417    -0.39900
C1139       C  0.20397210  0.42506362  0.99008916    -0.04800
C1140       C  0.21321064  0.38763041  0.97843610     0.09300
C1141       C  0.25640882  0.39658673  0.98070866    -0.02200
C1142       C  0.29010396  0.44206462  0.99675214    -0.00500
C1143       C  0.28033470  0.47812596  0.01278887    -0.04100
C1144       C  0.23727152  0.47010923  0.00752901     0.02900
C1145       C  0.17674121  0.33652884  0.97012637     0.09800
C1146       C  0.26511264  0.35732643  0.96900224     0.35700
C1147       C  0.22615041  0.50651873  0.02246719     0.39100
C1148       C  0.15982625  0.31908410  0.92953249    -0.04500
C1149       C  0.12401915  0.27132067  0.92293235     0.02700
C1150       C  0.10392276  0.24132815  0.95718859    -0.04100
C1151       C  0.12463560  0.25732004  0.99722726    -0.00300
C1152       C  0.15994988  0.30519175  0.00365218    -0.02900
C1153       C  0.17776521  0.35134827  0.89508633     0.36400
C1154       C  0.10828663  0.22713074  0.03321881     0.40000
C1155       C  0.10692969  0.25337258  0.88100946     0.39200
C1156       C  0.17719159  0.32368055  0.04558380     0.36100
C1157       C  0.15945695  0.41585587  0.98647409     0.36800
C1158       C  0.33478094  0.45153926  0.99645332     0.40000
N1159       N  0.09258733  0.23857908  0.84783092    -0.38100
N1160       N  0.19192173  0.37745771  0.86778301    -0.39600
N1161       N  0.09583624  0.20435303  0.06271858    -0.37400
N1162       N  0.19053754  0.33870728  0.07899622    -0.39800
N1163       N  0.27082801  0.32512255  0.95970091    -0.39600
N1164       N  0.37033775  0.45875763  0.99541952    -0.37200
N1165       N  0.21699634  0.53537750  0.03428466    -0.38200
N1166       N  0.12387959  0.40829334  0.98352834    -0.39900
C1167       C  0.92600187  0.12948262  0.08407351    -0.04800
C1168       C  0.94073403  0.17667209  0.10249042     0.09300
C1169       C  0.97675951  0.21718782  0.08555834    -0.02200
C1170       C  0.99667802  0.21117173  0.04924852    -0.00500
C1171       C  0.98156838  0.16384756  0.02999859    -0.04100
C1172       C  0.94682376  0.12302187  0.04844518     0.02900
C1173       C  0.91672079  0.18406666  0.13834616     0.09800
C1174       C  0.99184668  0.26564444  0.10444481     0.35700
C1175       C  0.93140008  0.07440118  0.03018204     0.39100
C1176       C  0.93176922  0.18818348  0.17972225    -0.04500
C1177       C  0.90521950  0.18715337  0.21332599     0.02700
C1178       C  0.86250965  0.17926637  0.20559316    -0.04100
C1179       C  0.85161695  0.18469680  0.16463988    -0.00300
C1180       C  0.87811460  0.18584265  0.13093897    -0.02900
C1181       C  0.97263916  0.18900187  0.18756520     0.36400
C1182       C  0.81119719  0.18440341  0.15647415     0.40000
C1183       C  0.91831369  0.18512737  0.25566475     0.39200
C1184       C  0.86418835  0.18523498  0.08836651     0.36100
C1185       C  0.88809954  0.08776819  0.10080421     0.36800
C1186       C  0.03056958  0.25476448  0.03046566     0.40000
N1187       N  0.92848112  0.18269332  0.28932753    -0.38100
N1188       N  0.00516000  0.18936418  0.19359206    -0.39600
N1189       N  0.77953697  0.18527858  0.14896706    -0.37400
N1190       N  0.85318356  0.18431039  0.05427116    -0.39800
N1191       N  0.00374380  0.30420514  0.11955203    -0.39600
N1192       N  0.05689711  0.29050895  0.01612314    -0.37200
N1193       N  0.91860431  0.03508342  0.01650335    -0.38200
N1194       N  0.85755464  0.05454761  0.11384745    -0.39900
C1195       C  0.47721514  0.43597292  0.20104290    -0.04800
C1196       C  0.47835568  0.43434237  0.24470747     0.09300
C1197       C  0.47486428  0.46961739  0.27016937    -0.02200
C1198       C  0.46969244  0.50641985  0.25187014    -0.00500
C1199       C  0.46846906  0.50824365  0.20787658    -0.04100
C1200       C  0.47272195  0.47295054  0.18261510     0.02900
C1201       C  0.48546283  0.39643602  0.26343216     0.09800
C1202       C  0.47621926  0.46762955  0.31520453     0.35700
C1203       C  0.47345538  0.47478596  0.13750828     0.39100
C1204       C  0.52842908  0.40464097  0.26757075    -0.04500
C1205       C  0.53542078  0.36754567  0.28190922     0.02700
C1206       C  0.49931940  0.32178268  0.29120052    -0.04100
C1207       C  0.45648689  0.31405245  0.28838485    -0.00300
C1208       C  0.44945162  0.35118777  0.27392331    -0.02900
C1209       C  0.56527789  0.45079384  0.25575099     0.36400
C1210       C  0.41998672  0.26798292  0.30067591     0.40000
C1211       C  0.57979917  0.37691165  0.28800556     0.39200
C1212       C  0.40528689  0.34245503  0.26852660     0.36100
C1213       C  0.48074023  0.39928259  0.17513903     0.36800
C1214       C  0.46365919  0.54067896  0.27859629     0.40000
N1215       N  0.61524165  0.38468805  0.29301536    -0.38100
N1216       N  0.59449151  0.48747714  0.24588694    -0.39600
N1217       N  0.39137289  0.23116008  0.31106978    -0.37400
N1218       N  0.37003315  0.33541675  0.26392692    -0.39800
N1219       N  0.47725296  0.46600344  0.35111951    -0.39600
N1220       N  0.45865278  0.56728648  0.30073777    -0.37200
N1221       N  0.47420475  0.47521047  0.10147201    -0.38200
N1222       N  0.48354356  0.36983900  0.15484031    -0.39900
C1223       C  0.34883409  0.94704810  0.10905485    -0.04800
C1224       C  0.32814065  0.91118780  0.07686711     0.09300
C1225       C  0.29208119  0.90768954  0.05535179    -0.02200
C1226       C  0.27454162  0.93774144  0.06778255    -0.00500
C1227       C  0.29377937  0.97223763  0.10173408    -0.04100
C1228       C  0.33139239  0.97705742  0.12185381     0.02900
C1229       C  0.33762368  0.87015747  0.07217650     0.09800
C1230       C  0.27193116  0.87009687  0.02253936     0.35700
C1231       C  0.35086019  0.01035596  0.15747570     0.39100
C1232       C  0.31500894  0.82974879  0.09752306    -0.04500
C1233       C  0.32533227  0.79210451  0.09630199     0.02700
C1234       C  0.35693772  0.79346391  0.06822326    -0.04100
C1235       C  0.37798201  0.83272164  0.04129424    -0.00300
C1236       C  0.36825433  0.87109409  0.04320897    -0.02900
C1237       C  0.28199073  0.82786614  0.12598940     0.36400
C1238       C  0.41109730  0.83462242  0.01313059     0.40000
C1239       C  0.30652240  0.75495971  0.12713123     0.39200
C1240       C  0.39029959  0.91191059  0.01617611     0.36100
C1241       C  0.38631727  0.95046880  0.13082711     0.36800
C1242       C  0.23447170  0.92992283  0.04821958     0.40000
N1243       N  0.29147218  0.72666489  0.15278579    -0.38100
N1244       N  0.25565957  0.82656031  0.14849068    -0.39600
N1245       N  0.43762965  0.83606489  0.99083784    -0.37400
N1246       N  0.40794805  0.94440285  0.99447904    -0.39800
N1247       N  0.25859636  0.83910785  0.99693931    -0.39600
N1248       N  0.20215896  0.92305376  0.03285555    -0.37200
N1249       N  0.36780550  0.03618313  0.18617766    -0.38200
N1250       N  0.41610218  0.95281801  0.14807398    -0.39900
C1251       C  0.42171192  0.15933347  0.23051965    -0.04800
C1252       C  0.42264078  0.17788068  0.19077322     0.09300
C1253       C  0.46060132  0.22184060  0.18028004    -0.02200
C1254       C  0.49650808  0.24661958  0.20895818    -0.00500
C1255       C  0.49538853  0.22823966  0.24870155    -0.04100
C1256       C  0.45827293  0.18291987  0.25820237     0.02900
C1257       C  0.38393974  0.15045869  0.16029744     0.09800
C1258       C  0.46152580  0.24331818  0.14095517     0.35700
C1259       C  0.45692350  0.16048775  0.29710200     0.39100
C1260       C  0.34299993  0.14691364  0.16870159    -0.04500
C1261       C  0.30483872  0.11351371  0.14519256     0.02700
C1262       C  0.30705579  0.08318846  0.11212672    -0.04100
C1263       C  0.34940604  0.09433763  0.09899174    -0.00300
C1264       C  0.38721057  0.12587306  0.12371524    -0.02900
C1265       C  0.33991952  0.17711753  0.20231508     0.36400
C1266       C  0.35355730  0.07122454  0.06068851     0.40000
C1267       C  0.26369669  0.11092488  0.15564215     0.39200
C1268       C  0.42900051  0.13028065  0.11299083     0.36100
C1269       C  0.38200141  0.11758693  0.24463802     0.36800
C1270       C  0.53490214  0.29152192  0.19782020     0.40000
N1271       N  0.23109761  0.10953659  0.16401604    -0.38100
N1272       N  0.33710532  0.20115602  0.22896884    -0.39600
N1273       N  0.35678368  0.05285660  0.02996214    -0.37400
N1274       N  0.46243996  0.13383455  0.10464277    -0.39800
N1275       N  0.46199025  0.26042602  0.10957454    -0.39600
N1276       N  0.56578798  0.32711243  0.18863080    -0.37200
N1277       N  0.45552491  0.14136525  0.32756193    -0.38200
N1278       N  0.35038954  0.08502400  0.25692841    -0.39900
loop_ 
_geom_bond_atom_site_label_1 
_geom_bond_atom_site_label_2 
_geom_bond_distance 
_geom_bond_site_symmetry_2 
_ccdc_geom_bond_type 
N1            C5   1.377       .  A
N1            C2   1.366   1_545  A
N1         C1262   1.476       .  S
C2            C3   1.375       .  A
C2         C1227   1.492       .  S
C3            C4   1.362       .  A
C3            H6   1.082       .  S
C4            C5   1.390   1_565  A
C4            H7   1.083       .  S
C5          C414   1.510       .  S
N8           C12   1.370       .  A
N8            C9   1.358       .  A
N8         C1255   1.465       .  S
C9           C10   1.368       .  A
C9         C1206   1.472       .  S
C10          C11   1.361       .  A
C10          H13   1.082       .  S
C11          C12   1.394       .  A
C11          H14   1.081       .  S
C12         C145   1.500       .  S
N15          C19   1.361   1_455  A
N15          C16   1.354       .  A
N15         C427   1.447       .  S
C16          C17   1.385       .  A
C16        C1150   1.504       .  S
C17          C18   1.369   1_455  A
C17          H20   1.082       .  S
C18          C19   1.385       .  A
C18          H21   1.082       .  S
C19        C1171   1.501   1_556  S
N22          C26   1.371       .  A
N22          C23   1.368       .  A
N22         C132   1.455       .  S
C23          C24   1.376       .  A
C23        C1115   1.485       .  S
C24          C25   1.357       .  A
C24          H27   1.083       .  S
C25          C26   1.386       .  A
C25          H28   1.083       .  S
C26        C1178   1.490       .  S
N29          C33   1.376       .  A
N29          C30   1.364       .  A
N29        C1087   1.458       .  S
C30          C31   1.374       .  A
C30        C1066   1.482   1_655  S
C31          C32   1.357       .  A
C31          H34   1.081   1_655  S
C32          C33   1.384       .  A
C32          H35   1.083       .  S
C33         C133   1.483       .  S
N36          C40   1.375       .  A
N36          C37   1.365       .  A
N36        C1094   1.469       .  S
C37          C38   1.375       .  A
C37        C1038   1.481       .  S
C38          C39   1.357       .  A
C38          H41   1.083       .  S
C39          C40   1.381       .  A
C39          H42   1.083       .  S
C40         C415   1.481       .  S
Zr43         O44   2.437       .  S
Zr43         O45   2.429       .  S
Zr43         O46   2.456       .  S
Zr43         O49   2.463       .  S
Zr43         O51   2.386       .  S
Zr43         O52   2.389       .  S
Zr43         O53   2.411       .  S
Zr43         O54   2.397       .  S
O44         H100   0.990       .  S
O44         H108   0.989       .  S
O45          C65   1.282       .  A
O46          C67   1.288       .  A
O47         Zr57   2.402       .  S
O47          C66   1.279       .  A
O48         Zr56   2.406       .  S
O48          C67   1.280       .  A
O49          C66   1.290       .  A
O50         Zr58   2.428       .  S
O50          C65   1.282       .  A
O51         Zr56   2.391       .  S
O51         Zr58   2.374       .  S
O52         Zr57   2.382       .  S
O52         Zr58   2.382       .  S
O52          H87   0.966       .  S
O53         Zr56   2.402       .  S
O53         Zr73   2.388       .  S
O53          H90   0.965       .  S
O54         Zr57   2.392       .  S
O54         Zr73   2.397       .  S
Zr55         O80   2.439   1_554  S
Zr55         O74   2.427       .  S
Zr55         O82   2.450       .  S
Zr55         O70   2.447       .  S
Zr55         O61   2.410       .  S
Zr55         O62   2.407       .  S
Zr55         O63   2.384       .  S
Zr55         O64   2.382       .  S
Zr56         O75   2.436       .  S
Zr56         O68   2.427       .  S
Zr56         O69   2.429       .  S
Zr56         O62   2.389       .  S
Zr56         O63   2.383       .  S
Zr57         O59   2.433       .  S
Zr57         O81   2.434       .  S
Zr57         O83   2.403       .  S
Zr57         O61   2.386       .  S
Zr57         O64   2.382       .  S
Zr58         O84   2.436       .  S
Zr58         O85   2.435   1_554  S
Zr58         O60   2.438       .  S
Zr58         O61   2.408       .  S
Zr58         O62   2.396       .  S
O59          H96   0.990       .  S
O60          H91   0.990       .  S
O60         H105   0.989       .  S
O62          H88   0.966       .  S
O63         Zr73   2.375       .  S
O64         Zr73   2.360       .  S
O64          H89   0.964       .  S
C65        C1031   1.478       .  S
C66        C1122   1.495       .  S
C67        C1199   1.485       .  S
O68         H104   0.990       .  S
O69          C71   1.285       .  A
O70          C71   1.288       .  A
C71        C1143   1.497       .  S
O72         Zr73   2.439       .  S
O72         H101   0.990       .  S
Zr73         O76   2.438       .  S
Zr73         O77   2.440       .  S
Zr73         O78   2.434       .  S
O74          C79   1.283       .  A
O75          H92   0.990       .  S
O75         H107   0.990       .  S
O76          H93   0.990       .  S
O77          H97   0.989       .  S
O77         H106   0.990       .  S
O78          C79   1.285       .  A
C79        C1059   1.501       .  S
O80          H99   0.990       .  S
O80         H103   0.990       .  S
O81          H95   0.990       .  S
O81         H102   0.990       .  S
O82          C86   1.287       .  A
O83          C86   1.278       .  A
O84          H94   0.990       .  S
O85          H98   0.990       .  S
C86        C1234   1.472       .  S
Zr109       O110   2.434       .  S
Zr109       O111   2.445       .  S
Zr109       O112   2.449       .  S
Zr109       O115   2.470       .  S
Zr109       O117   2.377       .  S
Zr109       O118   2.383       .  S
Zr109       O119   2.417       .  S
Zr109       O120   2.416       .  S
O110        H166   0.990       .  S
O110        H174   0.990       .  S
O111        C131   1.290       .  A
O112        C133   1.290       .  A
O113       Zr123   2.440       .  S
O113        C132   1.288       .  A
O114       Zr122   2.453       .  S
O114        C133   1.284       .  A
O115        C132   1.291       .  A
O116       Zr124   2.450       .  S
O116        C131   1.283       .  A
O117       Zr122   2.403       .  S
O117       Zr124   2.375       .  S
O118       Zr123   2.399       .  S
O118       Zr124   2.378       .  S
O118        H153   0.966       .  S
O119       Zr122   2.400       .  S
O119       Zr139   2.418       .  S
O119        H156   0.966       .  S
O120       Zr123   2.399       .  S
O120       Zr139   2.413       .  S
Zr121       O146   2.443       .  S
Zr121       O140   2.437       .  S
Zr121       O148   2.419       .  S
Zr121       O136   2.439       .  S
Zr121       O127   2.399       .  S
Zr121       O128   2.409       .  S
Zr121       O129   2.381       .  S
Zr121       O130   2.376       .  S
Zr122       O141   2.433       .  S
Zr122       O134   2.431       .  S
Zr122       O135   2.450       .  S
Zr122       O128   2.409       .  S
Zr122       O129   2.396       .  S
Zr123       O125   2.436       .  S
Zr123       O147   2.437       .  S
Zr123       O149   2.468       .  S
Zr123       O127   2.394       .  S
Zr123       O130   2.390       .  S
Zr124       O150   2.436       .  S
Zr124       O151   2.435       .  S
Zr124       O126   2.437       .  S
Zr124       O127   2.402       .  S
Zr124       O128   2.399       .  S
O125        H162   0.990       .  S
O126        H157   0.990       .  S
O126        H171   0.990       .  S
O128        H154   0.965       .  S
O129       Zr139   2.387       .  S
O130       Zr139   2.385       .  S
O130        H155   0.966       .  S
C131        C214   1.495       .  S
O134        H170   0.991       .  S
O135        C137   1.288       .  A
O136        C137   1.284       .  A
C137        N196   1.447       .  S
O138       Zr139   2.435       .  S
O138        H167   0.990       .  S
Zr139       O142   2.436       .  S
Zr139       O143   2.437       .  S
Zr139       O144   2.462       .  S
O140        C145   1.288       .  A
O141        H158   0.990       .  S
O141        H173   0.990       .  S
O142        H159   0.990       .  S
O143        H163   0.990       .  S
O143        H172   0.990       .  S
O144        C145   1.285       .  A
O146        H165   0.991       .  S
O146        H169   0.989       .  S
O147        H161   0.990       .  S
O147        H168   0.990       .  S
O148        C152   1.284       .  A
O149        C152   1.287       .  A
O150        H160   0.989       .  S
O151        H164   0.990       .  S
C152        C186   1.493       .  S
N175        C179   1.370       .  A
N175        C176   1.373       .  A
N175       C1010   1.471       .  S
C176        C177   1.379       .  A
C176        C982   1.499       .  S
C177        C178   1.363       .  A
C177        H180   1.083       .  S
C178        C179   1.381       .  A
C178        H181   1.082       .  S
C179        C479   1.486       .  S
N182        C186   1.367       .  A
N182        C183   1.363       .  A
N182       C1003   1.452       .  S
C183        C184   1.378       .  A
C183        C947   1.489       .  S
C184        C185   1.363       .  A
C184        H187   1.083       .  S
C185        C186   1.388       .  A
C185        H188   1.082       .  S
N189        C193   1.370       .  A
N189        C190   1.366       .  A
N189        C481   1.454       .  S
C190        C191   1.380       .  A
C190        C891   1.505       .  S
C191        C192   1.360       .  A
C191        H194   1.082       .  S
C192        C193   1.384       .  A
C192        H195   1.082       .  S
C193        C919   1.495       .  S
N196        C200   1.363       .  A
N196        C197   1.354       .  A
C197        C198   1.385       .  A
C197        C863   1.500       .  S
C198        C199   1.368       .  A
C198        H201   1.082       .  S
C199        C200   1.385       .  A
C199        H202   1.083       .  S
C200        C926   1.501       .  S
N203        C207   1.380       .  A
N203        C204   1.367       .  A
N203        C842   1.476       .  S
C204        C205   1.370       .  A
C204        C807   1.491       .  S
C205        C206   1.361       .  A
C205        H208   1.079       .  S
C206        C207   1.390       .  A
C206        H209   1.083       .  S
C207        C485   1.503       .  S
N210        C214   1.372       .  A
N210        C211   1.361       .  A
N210        C835   1.457       .  S
C211        C212   1.373       .  A
C211        C779   1.485   1_655  S
C212        C213   1.365       .  A
C212        H215   1.082       .  S
C213        C214   1.389       .  A
C213        H216   1.083       .  S
Zr217       O218   2.438   1_455  S
Zr217       O219   2.445   1_455  S
Zr217       O220   2.470   1_455  S
Zr217       O223   2.444       .  S
Zr217       O225   2.376       .  S
Zr217       O226   2.384       .  S
Zr217       O227   2.408       .  S
Zr217       O228   2.414       .  S
O218        H274   0.989       .  S
O218        H282   0.990       .  S
O219        C239   1.288       .  A
O220        C241   1.291       .  A
O221       Zr231   2.421       .  S
O221        C240   1.282       .  A
O222       Zr230   2.445   1_665  S
O222        C241   1.287       .  A
O223        C240   1.287       .  A
O224       Zr232   2.404       .  S
O224        C239   1.277   1_455  A
O225       Zr230   2.383   1_565  S
O225       Zr232   2.381       .  S
O226       Zr231   2.387       .  S
O226       Zr232   2.377       .  S
O226        H261   0.966       .  S
O227       Zr230   2.389   1_565  S
O227       Zr247   2.413   1_565  S
O227        H264   0.966       .  S
O228       Zr231   2.389       .  S
O228       Zr247   2.406   1_565  S
Zr229       O254   2.439       .  S
Zr229       O248   2.417       .  S
Zr229       O256   2.476       .  S
Zr229       O244   2.461       .  S
Zr229       O235   2.393   1_545  S
Zr229       O236   2.404       .  S
Zr229       O237   2.384       .  S
Zr229       O238   2.385       .  S
Zr230       O249   2.432       .  S
Zr230       O242   2.435   1_455  S
Zr230       O243   2.406       .  S
Zr230       O236   2.404       .  S
Zr230       O237   2.387       .  S
Zr231       O233   2.435       .  S
Zr231       O255   2.438       .  S
Zr231       O257   2.414       .  S
Zr231       O235   2.397       .  S
Zr231       O238   2.390   1_565  S
Zr232       O258   2.435       .  S
Zr232       O259   2.435       .  S
Zr232       O234   2.438       .  S
Zr232       O235   2.392       .  S
Zr232       O236   2.384   1_565  S
O233        H270   0.990       .  S
O234        H265   0.990       .  S
O234        H279   0.990       .  S
O236        H262   0.966       .  S
O237       Zr247   2.370       .  S
O238       Zr247   2.380       .  S
O238        H263   0.966       .  S
C239        C870   1.479       .  S
C240        C814   1.483       .  S
C241        C975   1.525       .  S
O242        H278   0.990   1_545  S
O243        C245   1.281       .  A
O244        C245   1.290       .  A
C245        C786   1.480       .  S
O246       Zr247   2.439   1_565  S
O246        H275   0.991   1_565  S
Zr247       O250   2.435       .  S
Zr247       O251   2.440       .  S
Zr247       O252   2.456       .  S
O248        C253   1.283       .  A
O249        H266   0.990       .  S
O249        H281   0.989   1_455  S
O250        H267   0.989       .  S
O251        H271   0.990       .  S
O251        H280   0.990   1_545  S
O252        C253   1.287       .  A
C253        C898   1.492       .  S
O254        H273   0.990       .  S
O254        H277   0.990       .  S
O255        H269   0.990       .  S
O255        H276   0.990       .  S
O256        C260   1.292       .  A
O257        C260   1.281   1_565  A
O258        H268   0.990       .  S
O259        H272   0.990   1_565  S
C260        C954   1.492       .  S
N283        C287   1.369       .  A
N283        C284   1.367       .  A
N283        C758   1.474       .  S
C284        C285   1.377       .  A
C284        C723   1.488       .  S
C285        C286   1.362       .  A
C285        H288   1.083       .  S
C286        C287   1.383       .  A
C286        H289   1.082       .  S
C287        C480   1.486       .  S
N290        C294   1.373       .  A
N290        C291   1.358       .  A
N290        C751   1.470       .  S
C291        C292   1.373   1_565  A
C291        C695   1.477   1_565  S
C292        C293   1.362   1_545  A
C292        H295   1.082       .  S
C293        C294   1.394       .  A
C293        H296   1.083   1_565  S
C294        C419   1.509       .  S
N297        C301   1.366       .  A
N297        C298   1.366       .  A
N297        C500   1.450       .  S
C298        C299   1.381       .  A
C298        C639   1.503       .  S
C299        C300   1.361       .  A
C299        H302   1.082       .  S
C300        C301   1.384       .  A
C300        H303   1.083       .  S
C301        C667   1.490       .  S
N304        C308   1.349       .  A
N304        C305   1.358       .  A
N304        C413   1.435       .  S
C305        C306   1.385   1_556  A
C305        C611   1.512       .  S
C306        C307   1.375   1_554  A
C306        H309   1.083       .  S
C307        C308   1.383       .  A
C307        H310   1.077       .  S
C308        C674   1.497       .  S
N311        C315   1.373       .  A
N311        C312   1.368       .  A
N311        C583   1.468       .  S
C312        C313   1.375       .  A
C312        C555   1.487       .  S
C313        C314   1.362       .  A
C313        H316   1.082       .  S
C314        C315   1.382       .  A
C314        H317   1.081       .  S
C315        C434   1.485       .  S
N318        C322   1.371       .  A
N318        C319   1.361       .  A
N318        C493   1.453       .  S
C319        C320   1.382       .  A
C319        C534   1.492       .  S
C320        C321   1.366       .  A
C320        H323   1.083       .  S
C321        C322   1.385       .  A
C321        H324   1.082       .  S
C322        C590   1.521       .  S
Zr325       O326   2.438       .  S
Zr325       O327   2.438       .  S
Zr325       O328   2.440       .  S
Zr325       O331   2.423       .  S
Zr325       O333   2.378       .  S
Zr325       O334   2.382       .  S
Zr325       O335   2.407       .  S
Zr325       O336   2.401       .  S
O326        H382   0.990       .  S
O326        H390   0.990       .  S
O327        C347   1.286       .  A
O328        C349   1.284       .  A
O329       Zr339   2.416       .  S
O329        C348   1.281       .  A
O330       Zr338   2.409       .  S
O330        C349   1.279       .  A
O331        C348   1.283       .  A
O332       Zr340   2.441       .  S
O332        C347   1.285       .  A
O333       Zr338   2.379       .  S
O333       Zr340   2.373       .  S
O334       Zr339   2.369       .  S
O334       Zr340   2.371       .  S
O334        H369   0.965       .  S
O335       Zr338   2.391       .  S
O335       Zr355   2.406       .  S
O335        H372   0.966       .  S
O336       Zr339   2.388       .  S
O336       Zr355   2.400       .  S
Zr337       O362   2.437       .  S
Zr337       O356   2.429       .  S
Zr337       O364   2.459       .  S
Zr337       O352   2.469       .  S
Zr337       O343   2.415       .  S
Zr337       O344   2.417       .  S
Zr337       O345   2.377       .  S
Zr337       O346   2.383       .  S
Zr338       O357   2.438       .  S
Zr338       O350   2.435       .  S
Zr338       O351   2.394       .  S
Zr338       O344   2.392       .  S
Zr338       O345   2.385       .  S
Zr339       O341   2.435       .  S
Zr339       O363   2.437       .  S
Zr339       O365   2.403       .  S
Zr339       O343   2.391       .  S
Zr339       O346   2.375       .  S
Zr340       O366   2.435       .  S
Zr340       O367   2.435       .  S
Zr340       O342   2.438       .  S
Zr340       O343   2.405       .  S
Zr340       O344   2.411       .  S
O341        H378   0.990       .  S
O342        H373   0.990       .  S
O342        H387   0.990       .  S
O344        H370   0.967       .  S
O345       Zr355   2.363       .  S
O346       Zr355   2.369       .  S
O346        H371   0.965       .  S
C347        C527   1.512       .  S
C348        C618   1.468       .  S
C349        C702   1.474       .  S
O350        H386   0.990       .  S
O351        C353   1.277       .  A
O352        C353   1.292       .  A
C353        C646   1.483       .  S
O354       Zr355   2.440       .  S
O354        H383   0.991       .  S
Zr355       O358   2.438       .  S
Zr355       O359   2.434       .  S
Zr355       O360   2.456       .  S
O356        C361   1.284       .  A
O357        H374   0.990       .  S
O357        H389   0.989       .  S
O358        H375   0.990       .  S
O359        H379   0.990       .  S
O359        H388   0.989       .  S
O360        C361   1.290       .  A
C361        C562   1.497       .  S
O362        H381   0.990       .  S
O362        H385   0.990       .  S
O363        H377   0.990       .  S
O363        H384   0.990       .  S
O364        C368   1.290       .  A
O365        C368   1.281       .  A
O366        H376   0.990       .  S
O367        H380   0.990       .  S
C368        C730   1.486       .  S
Zr391       O392   2.441       .  S
Zr391       O393   2.456   1_554  S
Zr391       O394   2.451       .  S
Zr391       O397   2.461       .  S
Zr391       O399   2.377   1_554  S
Zr391       O400   2.380   1_554  S
Zr391       O401   2.416       .  S
Zr391       O402   2.408   1_565  S
O392        H448   0.990       .  S
O392        H456   0.990       .  S
O393        C413   1.290       .  A
O394        C415   1.286   1_455  A
O395       Zr405   2.467   1_554  S
O395        C414   1.287       .  A
O396       Zr404   2.478   1_554  S
O396        C415   1.294       .  A
O397        C414   1.294   1_565  A
O398       Zr406   2.404       .  S
O398        C413   1.275       .  A
O399       Zr404   2.401   1_455  S
O399       Zr406   2.376       .  S
O400       Zr405   2.418   1_565  S
O400       Zr406   2.384       .  S
O400        H435   0.966       .  S
O401       Zr404   2.409   1_454  S
O401       Zr421   2.388   1_565  S
O401        H438   0.963       .  S
O402       Zr405   2.401   1_554  S
O402       Zr421   2.402       .  S
Zr403       O428   2.440       .  S
Zr403       O422   2.466       .  S
Zr403       O430   2.467       .  S
Zr403       O418   2.460       .  S
Zr403       O409   2.398       .  S
Zr403       O410   2.422   1_545  S
Zr403       O411   2.378       .  S
Zr403       O412   2.384       .  S
Zr404       O423   2.435       .  S
Zr404       O416   2.435       .  S
Zr404       O417   2.474       .  S
Zr404       O410   2.411   1_655  S
Zr404       O411   2.410   1_665  S
Zr405       O407   2.437   1_556  S
Zr405       O429   2.436       .  S
Zr405       O431   2.467       .  S
Zr405       O409   2.391       .  S
Zr405       O412   2.409       .  S
Zr406       O432   2.437       .  S
Zr406       O433   2.434       .  S
Zr406       O408   2.438       .  S
Zr406       O409   2.385   1_565  S
Zr406       O410   2.386       .  S
O407        H444   0.990   1_554  S
O408        H439   0.990       .  S
O408        H453   0.990       .  S
O410        H436   0.963       .  S
O411       Zr421   2.388   1_556  S
O412       Zr421   2.388   1_556  S
O412        H437   0.965       .  S
O416        H452   0.990       .  S
O417        C419   1.288       .  A
O418        C419   1.294   1_445  A
O420       Zr421   2.440       .  S
O420        H449   0.990       .  S
Zr421       O424   2.437   1_455  S
Zr421       O425   2.439       .  S
Zr421       O426   2.425       .  S
O422        C427   1.291       .  A
O423        H440   0.990       .  S
O423        H455   0.990   1_556  S
O424        H441   0.990       .  S
O425        H445   0.989       .  S
O425        H454   0.990       .  S
O426        C427   1.279   1_554  A
O428        H447   0.990       .  S
O428        H451   0.990       .  S
O429        H443   0.990       .  S
O429        H450   0.990       .  S
O430        C434   1.292       .  A
O431        C434   1.289       .  A
O432        H442   0.990       .  S
O433        H446   0.990       .  S
Zr457       O458   2.445       .  S
Zr457       O459   2.433       .  S
Zr457       O460   2.498       .  S
Zr457       O463   2.508       .  S
Zr457       O465   2.399       .  S
Zr457       O466   2.398       .  S
Zr457       O467   2.417       .  S
Zr457       O468   2.395       .  S
O458        H514   0.989       .  S
O458        H522   0.991       .  S
O459        C479   1.284       .  A
O460        C481   1.295       .  A
O461       Zr471   2.427       .  S
O461        C480   1.279       .  A
O462       Zr470   2.437       .  S
O462        C481   1.289       .  A
O463        C480   1.298       .  A
O464       Zr472   2.452       .  S
O464        C479   1.284       .  A
O465       Zr470   2.404       .  S
O465       Zr472   2.378       .  S
O466       Zr471   2.396       .  S
O466       Zr472   2.384       .  S
O466        H501   0.966       .  S
O467       Zr470   2.411       .  S
O467       Zr487   2.387       .  S
O467        H504   0.960       .  S
O468       Zr471   2.391       .  S
O468       Zr487   2.374       .  S
Zr469       O494   2.441       .  S
Zr469       O488   2.512       .  S
Zr469       O496   2.473       .  S
Zr469       O484   2.455       .  S
Zr469       O475   2.424       .  S
Zr469       O476   2.427       .  S
Zr469       O477   2.372       .  S
Zr469       O478   2.383       .  S
Zr470       O489   2.435       .  S
Zr470       O482   2.434       .  S
Zr470       O483   2.474       .  S
Zr470       O476   2.399       .  S
Zr470       O477   2.398       .  S
Zr471       O473   2.435       .  S
Zr471       O495   2.437       .  S
Zr471       O497   2.423       .  S
Zr471       O475   2.380       .  S
Zr471       O478   2.402       .  S
Zr472       O498   2.438       .  S
Zr472       O499   2.436       .  S
Zr472       O474   2.437       .  S
Zr472       O475   2.405       .  S
Zr472       O476   2.418       .  S
O473        H510   0.990       .  S
O474        H505   0.990       .  S
O474        H519   0.990       .  S
O476        H502   0.966       .  S
O477       Zr487   2.381       .  S
O478       Zr487   2.389       .  S
O478        H503   0.966       .  S
O482        H518   0.990       .  S
O483        C485   1.289       .  A
O484        C485   1.291       .  A
O486       Zr487   2.438       .  S
O486        H515   0.990       .  S
Zr487       O490   2.438       .  S
Zr487       O491   2.446       .  S
Zr487       O492   2.386       .  S
O488        C493   1.301       .  A
O489        H506   0.990       .  S
O489        H521   0.990       .  S
O490        H507   0.990       .  S
O491        H511   0.990       .  S
O491        H520   0.990       .  S
O492        C493   1.274       .  A
O494        H513   0.990       .  S
O494        H517   0.989       .  S
O495        H509   0.989       .  S
O495        H516   0.990       .  S
O496        C500   1.291       .  A
O497        C500   1.285       .  A
O498        H508   0.990       .  S
O499        H512   0.990       .  S
C523        C524   1.409       .  A
C523        C528   1.415   1_455  A
C523        C541   1.453       .  S
C524        C525   1.411       .  A
C524        C529   1.503       .  S
C525        C526   1.412   1_455  A
C525        C530   1.453       .  S
C526        C527   1.425       .  A
C526        C542   1.452       .  S
C527        C528   1.427       .  A
C528        C531   1.451       .  S
C529        C532   1.414       .  A
C529        C536   1.409       .  A
C530        N547   1.157       .  T
C531        N549   1.157       .  T
C532        C533   1.415       .  A
C532        C537   1.450       .  S
C533        C534   1.411       .  A
C533        C539   1.448       .  S
C534        C535   1.420       .  A
C535        C536   1.407       .  A
C535        C538   1.449       .  S
C536        C540   1.454       .  S
C537        N544   1.157       .  T
C538        N545   1.156       .  T
C539        N543   1.156       .  T
C540        N546   1.157       .  T
C541        N550   1.157       .  T
C542        N548   1.158       .  T
C551        C552   1.413       .  A
C551        C556   1.414       .  A
C551        C569   1.448       .  S
C552        C553   1.409       .  A
C552        C557   1.497       .  S
C553        C554   1.407       .  A
C553        C558   1.452       .  S
C554        C555   1.416       .  A
C554        C570   1.451       .  S
C555        C556   1.410       .  A
C556        C559   1.449       .  S
C557        C560   1.407       .  A
C557        C564   1.410       .  A
C558        N575   1.157       .  T
C559        N577   1.157       .  T
C560        C561   1.412       .  A
C560        C565   1.450       .  S
C561        C562   1.418       .  A
C561        C567   1.449       .  S
C562        C563   1.419       .  A
C563        C564   1.412       .  A
C563        C566   1.450       .  S
C564        C568   1.451       .  S
C565        N572   1.157       .  T
C566        N573   1.157       .  T
C567        N571   1.157       .  T
C568        N574   1.157       .  T
C569        N578   1.157       .  T
C570        N576   1.157       .  T
C579        C580   1.421       .  A
C579        C584   1.420       .  A
C579        C597   1.449       .  S
C580        C581   1.418       .  A
C580        C585   1.533       .  S
C581        C582   1.418       .  A
C581        C586   1.450       .  S
C582        C583   1.416       .  A
C582        C598   1.447       .  S
C583        C584   1.421       .  A
C584        C587   1.449       .  S
C585        C588   1.418       .  A
C585        C592   1.420       .  A
C586        N603   1.157       .  T
C587        N605   1.157       .  T
C588        C589   1.417       .  A
C588        C593   1.446       .  S
C589        C590   1.418       .  A
C589        C595   1.452       .  S
C590        C591   1.421       .  A
C591        C592   1.423       .  A
C591        C594   1.449       .  S
C592        C596   1.450       .  S
C593        N600   1.156       .  T
C594        N601   1.158       .  T
C595        N599   1.157       .  T
C596        N602   1.157       .  T
C597        N606   1.157       .  T
C598        N604   1.157       .  T
C607        C608   1.407   1_455  A
C607        C612   1.409       .  A
C607        C625   1.455       .  S
C608        C609   1.409       .  A
C608        C613   1.500       .  S
C609        C610   1.416   1_655  A
C609        C614   1.451       .  S
C610        C611   1.417       .  A
C610        C626   1.443   1_455  S
C611        C612   1.430       .  A
C612        C615   1.451       .  S
C613        C616   1.414       .  A
C613        C620   1.417       .  A
C614        N631   1.157       .  T
C615        N633   1.157       .  T
C616        C617   1.409       .  A
C616        C621   1.446       .  S
C617        C618   1.407       .  A
C617        C623   1.452       .  S
C618        C619   1.406       .  A
C619        C620   1.406       .  A
C619        C622   1.453       .  S
C620        C624   1.449       .  S
C621        N628   1.156       .  T
C622        N629   1.157       .  T
C623        N627   1.157       .  T
C624        N630   1.156   1_655  T
C625        N634   1.157       .  T
C626        N632   1.154       .  T
C635        C636   1.409       .  A
C635        C640   1.407       .  A
C635        C653   1.452       .  S
C636        C637   1.407       .  A
C636        C641   1.495   1_565  S
C637        C638   1.414       .  A
C637        C642   1.450       .  S
C638        C639   1.419       .  A
C638        C654   1.446       .  S
C639        C640   1.417       .  A
C640        C643   1.451       .  S
C641        C644   1.408       .  A
C641        C648   1.410       .  A
C642        N659   1.157       .  T
C643        N661   1.157       .  T
C644        C645   1.413       .  A
C644        C649   1.449   1_545  S
C645        C646   1.417       .  A
C645        C651   1.450       .  S
C646        C647   1.414       .  A
C647        C648   1.409       .  A
C647        C650   1.451       .  S
C648        C652   1.452       .  S
C649        N656   1.157       .  T
C650        N657   1.157       .  T
C651        N655   1.157       .  T
C652        N658   1.157       .  T
C653        N662   1.157   1_565  T
C654        N660   1.158       .  T
C663        C664   1.410       .  A
C663        C668   1.414       .  A
C663        C681   1.450       .  S
C664        C665   1.405       .  A
C664        C669   1.498       .  S
C665        C666   1.411       .  A
C665        C670   1.452       .  S
C666        C667   1.420       .  A
C666        C682   1.446       .  S
C667        C668   1.415       .  A
C668        C671   1.450       .  S
C669        C672   1.415       .  A
C669        C676   1.407       .  A
C670        N687   1.157       .  T
C671        N689   1.157       .  T
C672        C673   1.411       .  A
C672        C677   1.450       .  S
C673        C674   1.406       .  A
C673        C679   1.447       .  S
C674        C675   1.416       .  A
C675        C676   1.411       .  A
C675        C678   1.445       .  S
C676        C680   1.449       .  S
C677        N684   1.157       .  T
C678        N685   1.156       .  T
C679        N683   1.157       .  T
C680        N686   1.157       .  T
C681        N690   1.157       .  T
C682        N688   1.156       .  T
C691        C692   1.412       .  A
C691        C696   1.407       .  A
C691        C709   1.451       .  S
C692        C693   1.407       .  A
C692        C697   1.490       .  S
C693        C694   1.408       .  A
C693        C698   1.450       .  S
C694        C695   1.415       .  A
C694        C710   1.449       .  S
C695        C696   1.408       .  A
C696        C699   1.451   1_545  S
C697        C700   1.407       .  A
C697        C704   1.413       .  A
C698        N715   1.157       .  T
C699        N717   1.157       .  T
C700        C701   1.407       .  A
C700        C705   1.450       .  S
C701        C702   1.413       .  A
C701        C707   1.450       .  S
C702        C703   1.410       .  A
C703        C704   1.409       .  A
C703        C706   1.451       .  S
C704        C708   1.451       .  S
C705        N712   1.157       .  T
C706        N713   1.158       .  T
C707        N711   1.157       .  T
C708        N714   1.157       .  T
C709        N718   1.157       .  T
C710        N716   1.157       .  T
C719        C720   1.405       .  A
C719        C724   1.404       .  A
C719        C737   1.451       .  S
C720        C721   1.415       .  A
C720        C725   1.495       .  S
C721        C722   1.414       .  A
C721        C726   1.450       .  S
C722        C723   1.411       .  A
C722        C738   1.450       .  S
C723        C724   1.417       .  A
C724        C727   1.447       .  S
C725        C728   1.409       .  A
C725        C732   1.413       .  A
C726        N743   1.157       .  T
C727        N745   1.156       .  T
C728        C729   1.410       .  A
C728        C733   1.450       .  S
C729        C730   1.414       .  A
C729        C735   1.450       .  S
C730        C731   1.409       .  A
C731        C732   1.410       .  A
C731        C734   1.446       .  S
C732        C736   1.451       .  S
C733        N740   1.157       .  T
C734        N741   1.156       .  T
C735        N739   1.157       .  T
C736        N742   1.157       .  T
C737        N746   1.157       .  T
C738        N744   1.157       .  T
C747        C748   1.424       .  A
C747        C752   1.428       .  A
C747        C765   1.449       .  S
C748        C749   1.415       .  A
C748        C753   1.534       .  S
C749        C750   1.418       .  A
C749        C754   1.452       .  S
C750        C751   1.426       .  A
C750        C766   1.449       .  S
C751        C752   1.412       .  A
C752        C755   1.447       .  S
C753        C756   1.417       .  A
C753        C760   1.420       .  A
C754        N771   1.157       .  T
C755        N773   1.157       .  T
C756        C757   1.425       .  A
C756        C761   1.452       .  S
C757        C758   1.430       .  A
C757        C763   1.449       .  S
C758        C759   1.414       .  A
C759        C760   1.420       .  A
C759        C762   1.448       .  S
C760        C764   1.449       .  S
C761        N768   1.157       .  T
C762        N769   1.157       .  T
C763        N767   1.158       .  T
C764        N770   1.157       .  T
C765        N774   1.157       .  T
C766        N772   1.158       .  T
C775        C776   1.412       .  A
C775        C780   1.413       .  A
C775        C793   1.450       .  S
C776        C777   1.413       .  A
C776        C781   1.500       .  S
C777        C778   1.408   1_455  A
C777        C782   1.452   1_455  S
C778        C779   1.412   1_655  A
C778        C794   1.452       .  S
C779        C780   1.412       .  A
C780        C783   1.449       .  S
C781        C784   1.411       .  A
C781        C788   1.415       .  A
C782        N799   1.157       .  T
C783        N801   1.157       .  T
C784        C785   1.409       .  A
C784        C789   1.451       .  S
C785        C786   1.412       .  A
C785        C791   1.451       .  S
C786        C787   1.411       .  A
C787        C788   1.414       .  A
C787        C790   1.450       .  S
C788        C792   1.451       .  S
C789        N796   1.157       .  T
C790        N797   1.157       .  T
C791        N795   1.157       .  T
C792        N798   1.157       .  T
C793        N802   1.157       .  T
C794        N800   1.157       .  T
C803        C804   1.414       .  A
C803        C808   1.408       .  A
C803        C821   1.452       .  S
C804        C805   1.413       .  A
C804        C809   1.502       .  S
C805        C806   1.413       .  A
C805        C810   1.450       .  S
C806        C807   1.413       .  A
C806        C822   1.448       .  S
C807        C808   1.413       .  A
C808        C811   1.451       .  S
C809        C812   1.413       .  A
C809        C816   1.415       .  A
C810        N827   1.157   1_455  T
C811        N829   1.157       .  T
C812        C813   1.410       .  A
C812        C817   1.451       .  S
C813        C814   1.410       .  A
C813        C819   1.446       .  S
C814        C815   1.411       .  A
C815        C816   1.412       .  A
C815        C818   1.451       .  S
C816        C820   1.451       .  S
C817        N824   1.157       .  T
C818        N825   1.157       .  T
C819        N823   1.155       .  T
C820        N826   1.157       .  T
C821        N830   1.157       .  T
C822        N828   1.156       .  T
C831        C832   1.422       .  A
C831        C836   1.422   1_455  A
C831        C849   1.449       .  S
C832        C833   1.418       .  A
C832        C837   1.529       .  S
C833        C834   1.419       .  A
C833        C838   1.449       .  S
C834        C835   1.415   1_455  A
C834        C850   1.448       .  S
C835        C836   1.408       .  A
C836        C839   1.446       .  S
C837        C840   1.415       .  A
C837        C844   1.416       .  A
C838        N855   1.157       .  T
C839        N857   1.157       .  T
C840        C841   1.422       .  A
C840        C845   1.450       .  S
C841        C842   1.427       .  A
C841        C847   1.448       .  S
C842        C843   1.420       .  A
C843        C844   1.421       .  A
C843        C846   1.445       .  S
C844        C848   1.450       .  S
C845        N852   1.157       .  T
C846        N853   1.157       .  T
C847        N851   1.158       .  T
C848        N854   1.157       .  T
C849        N858   1.157       .  T
C850        N856   1.157       .  T
C859        C860   1.409       .  A
C859        C864   1.410       .  A
C859        C877   1.451       .  S
C860        C861   1.414       .  A
C860        C865   1.498       .  S
C861        C862   1.408       .  A
C861        C866   1.449       .  S
C862        C863   1.413       .  A
C862        C878   1.452       .  S
C863        C864   1.423       .  A
C864        C867   1.450       .  S
C865        C868   1.418       .  A
C865        C872   1.413       .  A
C866        N883   1.157       .  T
C867        N885   1.158       .  T
C868        C869   1.405       .  A
C868        C873   1.449       .  S
C869        C870   1.404       .  A
C869        C875   1.450       .  S
C870        C871   1.413       .  A
C871        C872   1.412       .  A
C871        C874   1.450   1_655  S
C872        C876   1.450       .  S
C873        N880   1.157       .  T
C874        N881   1.157       .  T
C875        N879   1.157       .  T
C876        N882   1.157       .  T
C877        N886   1.157       .  T
C878        N884   1.157       .  T
C887        C888   1.411       .  A
C887        C892   1.410       .  A
C887        C905   1.451       .  S
C888        C889   1.410       .  A
C888        C893   1.500       .  S
C889        C890   1.413       .  A
C889        C894   1.451       .  S
C890        C891   1.420       .  A
C890        C906   1.447       .  S
C891        C892   1.418       .  A
C892        C895   1.452       .  S
C893        C896   1.413       .  A
C893        C900   1.412       .  A
C894        N911   1.157       .  T
C895        N913   1.157       .  T
C896        C897   1.407       .  A
C896        C901   1.452       .  S
C897        C898   1.412       .  A
C897        C903   1.449       .  S
C898        C899   1.415       .  A
C899        C900   1.416       .  A
C899        C902   1.447       .  S
C900        C904   1.450       .  S
C901        N908   1.157       .  T
C902        N909   1.157       .  T
C903        N907   1.156       .  T
C904        N910   1.157       .  T
C905        N914   1.157       .  T
C906        N912   1.158       .  T
C915        C916   1.408       .  A
C915        C920   1.409       .  A
C915        C933   1.453       .  S
C916        C917   1.411       .  A
C916        C921   1.504       .  S
C917        C918   1.417       .  A
C917        C922   1.449       .  S
C918        C919   1.419       .  A
C918        C934   1.450       .  S
C919        C920   1.421       .  A
C920        C923   1.447       .  S
C921        C924   1.418       .  A
C921        C928   1.406       .  A
C922        N939   1.157       .  T
C923        N941   1.156       .  T
C924        C925   1.415       .  A
C924        C929   1.450       .  S
C925        C926   1.407       .  A
C925        C931   1.444       .  S
C926        C927   1.423       .  A
C927        C928   1.411       .  A
C927        C930   1.448       .  S
C928        C932   1.451       .  S
C929        N936   1.157       .  T
C930        N937   1.156       .  T
C931        N935   1.155       .  T
C932        N938   1.157       .  T
C933        N942   1.157       .  T
C934        N940   1.157       .  T
C943        C944   1.417       .  A
C943        C948   1.409       .  A
C943        C961   1.449       .  S
C944        C945   1.422       .  A
C944        C949   1.516       .  S
C945        C946   1.418       .  A
C945        C950   1.449       .  S
C946        C947   1.407       .  A
C946        C962   1.449       .  S
C947        C948   1.407       .  A
C948        C951   1.448       .  S
C949        C952   1.419       .  A
C949        C956   1.418       .  A
C950        N967   1.157   1_545  T
C951        N969   1.156       .  T
C952        C953   1.417       .  A
C952        C957   1.451       .  S
C953        C954   1.412       .  A
C953        C959   1.451       .  S
C954        C955   1.412       .  A
C955        C956   1.415       .  A
C955        C958   1.450       .  S
C956        C960   1.451       .  S
C957        N964   1.157       .  T
C958        N965   1.157       .  T
C959        N963   1.157       .  T
C960        N966   1.157       .  T
C961        N970   1.157       .  T
C962        N968   1.157       .  T
C971        C972   1.408       .  A
C971        C976   1.417       .  A
C971        C989   1.453       .  S
C972        C973   1.412       .  A
C972        C977   1.514       .  S
C973        C974   1.421       .  A
C973        C978   1.451       .  S
C974        C975   1.426       .  A
C974        C990   1.450       .  S
C975        C976   1.428       .  A
C976        C979   1.449       .  S
C977        C980   1.417       .  A
C977        C984   1.413       .  A
C978        N995   1.157       .  T
C979        N997   1.157   1_565  T
C980        C981   1.418       .  A
C980        C985   1.449       .  S
C981        C982   1.411       .  A
C981        C987   1.449       .  S
C982        C983   1.418       .  A
C983        C984   1.415       .  A
C983        C986   1.451       .  S
C984        C988   1.450       .  S
C985        N992   1.157       .  T
C986        N993   1.157       .  T
C987        N991   1.157       .  T
C988        N994   1.157       .  T
C989        N998   1.157       .  T
C990        N996   1.157       .  T
C999       C1000   1.421       .  A
C999       C1004   1.420   1_565  A
C999       C1017   1.446       .  S
C1000      C1001   1.413   1_565  A
C1000      C1005   1.519       .  S
C1001      C1002   1.408       .  A
C1001      C1006   1.448       .  S
C1002      C1003   1.418       .  A
C1002      C1018   1.451       .  S
C1003      C1004   1.407       .  A
C1004      C1007   1.447       .  S
C1005      C1008   1.413       .  A
C1005      C1012   1.413       .  A
C1006      N1023   1.155       .  T
C1007      N1025   1.157       .  T
C1008      C1009   1.412       .  A
C1008      C1013   1.451       .  S
C1009      C1010   1.418       .  A
C1009      C1015   1.445       .  S
C1010      C1011   1.432       .  A
C1011      C1012   1.418       .  A
C1011      C1014   1.448       .  S
C1012      C1016   1.452       .  S
C1013      N1020   1.157   1_565  T
C1014      N1021   1.158       .  T
C1015      N1019   1.157       .  T
C1016      N1022   1.158       .  T
C1017      N1026   1.156       .  T
C1018      N1024   1.157       .  T
C1027      C1028   1.414       .  A
C1027      C1032   1.410       .  A
C1027      C1045   1.451       .  S
C1028      C1029   1.408       .  A
C1028      C1033   1.493       .  S
C1029      C1030   1.410       .  A
C1029      C1034   1.450       .  S
C1030      C1031   1.413       .  A
C1030      C1046   1.449       .  S
C1031      C1032   1.410       .  A
C1032      C1035   1.451       .  S
C1033      C1036   1.411       .  A
C1033      C1040   1.409       .  A
C1034      N1051   1.157       .  T
C1035      N1053   1.157       .  T
C1036      C1037   1.411       .  A
C1036      C1041   1.450       .  S
C1037      C1038   1.410       .  A
C1037      C1043   1.449       .  S
C1038      C1039   1.414       .  A
C1039      C1040   1.407       .  A
C1039      C1042   1.452       .  S
C1040      C1044   1.451       .  S
C1041      N1048   1.157       .  T
C1042      N1049   1.157       .  T
C1043      N1047   1.157       .  T
C1044      N1050   1.157       .  T
C1045      N1054   1.157       .  T
C1046      N1052   1.156       .  T
C1055      C1056   1.409       .  A
C1055      C1060   1.408       .  A
C1055      C1073   1.453       .  S
C1056      C1057   1.404       .  A
C1056      C1061   1.493       .  S
C1057      C1058   1.413       .  A
C1057      C1062   1.449       .  S
C1058      C1059   1.426       .  A
C1058      C1074   1.451       .  S
C1059      C1060   1.421       .  A
C1060      C1063   1.452       .  S
C1061      C1064   1.410       .  A
C1061      C1068   1.408       .  A
C1062      N1079   1.156       .  T
C1063      N1081   1.157       .  T
C1064      C1065   1.413       .  A
C1064      C1069   1.449       .  S
C1065      C1066   1.412       .  A
C1065      C1071   1.449       .  S
C1066      C1067   1.415       .  A
C1067      C1068   1.405       .  A
C1067      C1070   1.452   1_455  S
C1068      C1072   1.452       .  S
C1069      N1076   1.157       .  T
C1070      N1077   1.157       .  T
C1071      N1075   1.157       .  T
C1072      N1078   1.157       .  T
C1073      N1082   1.157       .  T
C1074      N1080   1.157       .  T
C1083      C1084   1.417       .  A
C1083      C1088   1.418       .  A
C1083      C1101   1.448       .  S
C1084      C1085   1.419       .  A
C1084      C1089   1.529       .  S
C1085      C1086   1.422       .  A
C1085      C1090   1.446       .  S
C1086      C1087   1.412       .  A
C1086      C1102   1.447       .  S
C1087      C1088   1.412       .  A
C1088      C1091   1.445       .  S
C1089      C1092   1.415       .  A
C1089      C1096   1.417       .  A
C1090      N1107   1.156       .  T
C1091      N1109   1.157       .  T
C1092      C1093   1.422       .  A
C1092      C1097   1.449       .  S
C1093      C1094   1.418       .  A
C1093      C1099   1.446       .  S
C1094      C1095   1.424       .  A
C1095      C1096   1.422       .  A
C1095      C1098   1.449       .  S
C1096      C1100   1.449       .  S
C1097      N1104   1.157       .  T
C1098      N1105   1.157   1_655  T
C1099      N1103   1.157       .  T
C1100      N1106   1.157   1_655  T
C1101      N1110   1.157       .  T
C1102      N1108   1.157       .  T
C1111      C1112   1.414   1_545  A
C1111      C1116   1.409       .  A
C1111      C1129   1.451   1_545  S
C1112      C1113   1.411       .  A
C1112      C1117   1.502       .  S
C1113      C1114   1.410   1_565  A
C1113      C1118   1.448       .  S
C1114      C1115   1.412       .  A
C1114      C1130   1.450       .  S
C1115      C1116   1.409       .  A
C1116      C1119   1.447       .  S
C1117      C1120   1.418       .  A
C1117      C1124   1.409       .  A
C1118      N1135   1.157       .  T
C1119      N1137   1.156       .  T
C1120      C1121   1.414       .  A
C1120      C1125   1.451       .  S
C1121      C1122   1.412       .  A
C1121      C1127   1.450       .  S
C1122      C1123   1.418       .  A
C1123      C1124   1.410       .  A
C1123      C1126   1.450       .  S
C1124      C1128   1.451       .  S
C1125      N1132   1.157       .  T
C1126      N1133   1.157       .  T
C1127      N1131   1.157       .  T
C1128      N1134   1.157       .  T
C1129      N1138   1.157       .  T
C1130      N1136   1.157       .  T
C1139      C1140   1.409       .  A
C1139      C1144   1.413   1_556  A
C1139      C1157   1.450       .  S
C1140      C1141   1.405       .  A
C1140      C1145   1.494       .  S
C1141      C1142   1.410       .  A
C1141      C1146   1.452       .  S
C1142      C1143   1.421   1_556  A
C1142      C1158   1.449       .  S
C1143      C1144   1.419       .  A
C1144      C1147   1.450       .  S
C1145      C1148   1.408       .  A
C1145      C1152   1.407   1_556  A
C1146      N1163   1.158       .  T
C1147      N1165   1.157       .  T
C1148      C1149   1.412       .  A
C1148      C1153   1.448       .  S
C1149      C1150   1.418       .  A
C1149      C1155   1.450       .  S
C1150      C1151   1.425       .  A
C1151      C1152   1.408   1_556  A
C1151      C1154   1.451   1_556  S
C1152      C1156   1.454       .  S
C1153      N1160   1.157       .  T
C1154      N1161   1.157       .  T
C1155      N1159   1.157       .  T
C1156      N1162   1.157       .  T
C1157      N1166   1.157       .  T
C1158      N1164   1.157       .  T
C1167      C1168   1.414       .  A
C1167      C1172   1.416       .  A
C1167      C1185   1.450       .  S
C1168      C1169   1.405       .  A
C1168      C1173   1.502       .  S
C1169      C1170   1.411       .  A
C1169      C1174   1.452       .  S
C1170      C1171   1.426       .  A
C1170      C1186   1.451   1_655  S
C1171      C1172   1.411       .  A
C1172      C1175   1.448       .  S
C1173      C1176   1.410       .  A
C1173      C1180   1.411       .  A
C1174      N1191   1.157   1_655  T
C1175      N1193   1.157       .  T
C1176      C1177   1.414       .  A
C1176      C1181   1.450       .  S
C1177      C1178   1.419       .  A
C1177      C1183   1.451       .  S
C1178      C1179   1.411       .  A
C1179      C1180   1.414       .  A
C1179      C1182   1.445       .  S
C1180      C1184   1.450       .  S
C1181      N1188   1.157   1_655  T
C1182      N1189   1.156       .  T
C1183      N1187   1.157       .  T
C1184      N1190   1.157       .  T
C1185      N1194   1.157       .  T
C1186      N1192   1.157       .  T
C1195      C1196   1.405       .  A
C1195      C1200   1.405       .  A
C1195      C1213   1.453       .  S
C1196      C1197   1.408       .  A
C1196      C1201   1.486       .  S
C1197      C1198   1.411       .  A
C1197      C1202   1.451       .  S
C1198      C1199   1.417       .  A
C1198      C1214   1.450       .  S
C1199      C1200   1.418       .  A
C1200      C1203   1.450       .  S
C1201      C1204   1.409       .  A
C1201      C1208   1.412       .  A
C1202      N1219   1.157       .  T
C1203      N1221   1.157       .  T
C1204      C1205   1.404       .  A
C1204      C1209   1.452       .  S
C1205      C1206   1.412       .  A
C1205      C1211   1.452       .  S
C1206      C1207   1.407       .  A
C1207      C1208   1.408       .  A
C1207      C1210   1.450       .  S
C1208      C1212   1.449       .  S
C1209      N1216   1.157       .  T
C1210      N1217   1.157       .  T
C1211      N1215   1.158       .  T
C1212      N1218   1.157       .  T
C1213      N1222   1.157       .  T
C1214      N1220   1.157       .  T
C1223      C1224   1.405       .  A
C1223      C1228   1.409       .  A
C1223      C1241   1.452       .  S
C1224      C1225   1.403       .  A
C1224      C1229   1.491       .  S
C1225      C1226   1.410       .  A
C1225      C1230   1.446       .  S
C1226      C1227   1.419       .  A
C1226      C1242   1.449       .  S
C1227      C1228   1.414       .  A
C1228      C1231   1.442   1_565  S
C1229      C1232   1.409       .  A
C1229      C1236   1.410       .  A
C1230      N1247   1.156   1_554  T
C1231      N1249   1.154       .  T
C1232      C1233   1.403       .  A
C1232      C1237   1.454       .  S
C1233      C1234   1.413       .  A
C1233      C1239   1.450       .  S
C1234      C1235   1.412       .  A
C1235      C1236   1.412       .  A
C1235      C1238   1.450       .  S
C1236      C1240   1.449       .  S
C1237      N1244   1.157       .  T
C1238      N1245   1.157   1_554  T
C1239      N1243   1.156       .  T
C1240      N1246   1.157   1_554  T
C1241      N1250   1.157       .  T
C1242      N1248   1.157       .  T
C1251      C1252   1.417       .  A
C1251      C1256   1.418       .  A
C1251      C1269   1.451       .  S
C1252      C1253   1.419       .  A
C1252      C1257   1.530       .  S
C1253      C1254   1.426       .  A
C1253      C1258   1.448       .  S
C1254      C1255   1.414       .  A
C1254      C1270   1.447       .  S
C1255      C1256   1.420       .  A
C1256      C1259   1.448       .  S
C1257      C1260   1.415       .  A
C1257      C1264   1.417       .  A
C1258      N1275   1.157       .  T
C1259      N1277   1.157       .  T
C1260      C1261   1.424       .  A
C1260      C1265   1.450       .  S
C1261      C1262   1.428       .  A
C1261      C1267   1.449       .  S
C1262      C1263   1.418       .  A
C1263      C1264   1.423       .  A
C1263      C1266   1.448       .  S
C1264      C1268   1.449       .  S
C1265      N1272   1.157       .  T
C1266      N1273   1.157       .  T
C1267      N1271   1.158       .  T
C1268      N1274   1.157       .  T
C1269      N1278   1.158       .  T
C1270      N1276   1.157       .  T
